version 3
run General-0-20241222-09:46:38-104748
attr configname General
attr datetime 20241222-09:46:38
attr datetimef 20241222-094638
attr experiment General
attr inifile omnetpp.ini
attr iterationvars ""
attr iterationvarsd ""
attr iterationvarsf ""
attr measurement ""
attr network SmartHomeNetwork
attr processid 104748
attr repetition 0
attr replication #0
attr resultdir results
attr runnumber 0
attr seedset 0
config image-path ../../inet4.5/images
config network SmartHomeNetwork
config sim-time-limit 60s
config ..ipv4.arp.typename GlobalArp
config .accessPoint.wlan[].radio.transmitter.power 100mW
config ..wlan[*].radio.receiver.sensitivity -85dBm
config ..wlan[*].bitrate 10Mbps
config ..mobility.typename StationaryMobility
config ..mobility.initFromDisplayString false
config ..numApps 1
config ..app[0].typename UdpBasicApp
config ..app[0].destPort 5000
config ..app[0].messageLength 1000B
config ..app[0].sendInterval exponential(100ms)
config .accessPoint.wlan[].mgmt.typename Ieee80211MgmtApSimplified
config .accessPoint.wlan[].agent.typename ""
config ..wlan[*].agent.typename ""
config ..wlan[*].mgmt.typename Ieee80211MgmtStaSimplified
config ..wlan[*].mac.typename Ieee80211Mac
config ..wlan[*].mac.dcf.channelAccess.cwMin 7
config ..wlan[*].mac.dcf.channelAccess.cwMax 1023
config ..wlan[*].mac.dcf.channelAccess.aifsn 2
config ..wlan[*].mac.retryLimit 7
config ..wlan[*].radio.typename Ieee80211ScalarRadio
config ..wlan[*].radio.bandName "\"2.4 GHz\""
config ..wlan[*].radio.channelNumber 1
config ..wlan[*].radio.transmitter.typename Ieee80211ScalarTransmitter
config ..wlan[*].radio.receiver.typename Ieee80211ScalarReceiver
config .visualizer..mobilityVisualizer.displayMovementTrails true
config .visualizer..mobilityVisualizer.displayOrientations true
config .visualizer..mobilityVisualizer.displayVelocities true
config **.wlan[0].radio.displayCommunicationRange true
config *.visualizer.sceneVisualizer.descriptionFigure "\"title\""
config *.visualizer.mediumVisualizer.displaySignals true
config *.visualizer.physicalLinkVisualizer.displayLinks true
config *.visualizer.obstaclesVisualizer.displayObstacles true
config *.visualizer.signalVisualizer.displaySignals true
config **.app[0].recordStatistics true
config **.ipv4.recordStatistics true
config **.scalar-recording true
config *.radioMedium.obstacleLoss.typename DielectricObstacleLoss
config **.mobility.initialZ 1.7m
config **.wlan[0].radio.transmitter.communicationRange 50m
config **.wlan[0].typename Ieee80211Interface
config **.wlan[0].radio.typename Ieee80211Radio
config **.wlan[0].mac.typename Ieee80211Mac
config **.wlan[0].mibModule "\"Ieee80211Mib\""
config **.wlan[0].mac.ackTimeout 1ms
config **.wlan[0].queue.typename DropTailQueue
config **.wlan[0].queue.packetCapacity -1
config **.wlan[0].mac.useAck true
config *.smartLight2.app[0].destAddresses "\"accessPoint\""
config *.host[*].wlan[0].radio.transmitter.txPower 20mW
config *.host[*].wlan[0].radio.receiver.sensitivity -5dBm
config *.host[*].wlan[0].radio.phy.analogModel.pathLossModel "\"FreeSpacePathLoss\""

par SmartHomeNetwork.visualizer.sceneVisualizer typename "\"inet.visualizer.canvas.scene.SceneCanvasVisualizer\""
par SmartHomeNetwork.visualizer.sceneVisualizer visualizationTargetModule "\"^.^\""
par SmartHomeNetwork.visualizer.sceneVisualizer visualizationSubjectModule "\"^.^\""
par SmartHomeNetwork.visualizer.sceneVisualizer tags "\"\""
par SmartHomeNetwork.visualizer.sceneVisualizer physicalEnvironmentModule "\"physicalEnvironment\""
par SmartHomeNetwork.visualizer.sceneVisualizer networkNodeVisualizerModule "\"^.networkNodeVisualizer\""
par SmartHomeNetwork.visualizer.sceneVisualizer axisLength "nan m"
attr mutable ""
attr unit m
par SmartHomeNetwork.visualizer.sceneVisualizer animationSpeed 0
par SmartHomeNetwork.visualizer.sceneVisualizer sceneMinX "nan m"
attr unit m
par SmartHomeNetwork.visualizer.sceneVisualizer sceneMinY "nan m"
attr unit m
par SmartHomeNetwork.visualizer.sceneVisualizer sceneMinZ "nan m"
attr unit m
par SmartHomeNetwork.visualizer.sceneVisualizer sceneMaxX "nan m"
attr unit m
par SmartHomeNetwork.visualizer.sceneVisualizer sceneMaxY "nan m"
attr unit m
par SmartHomeNetwork.visualizer.sceneVisualizer sceneMaxZ "nan m"
attr unit m
par SmartHomeNetwork.visualizer.sceneVisualizer zIndex 0
par SmartHomeNetwork.visualizer.sceneVisualizer viewAngle "\"x right y down z out\""
attr mutable ""
par SmartHomeNetwork.visualizer.sceneVisualizer viewScale "\"1 1\""
attr mutable ""
par SmartHomeNetwork.visualizer.sceneVisualizer viewTranslation "\"0 0\""
attr mutable ""
par SmartHomeNetwork.visualizer.sceneVisualizer descriptionFigure "\"title\""
par SmartHomeNetwork.visualizer.physicalEnvironmentVisualizer typename "\"inet.visualizer.canvas.environment.PhysicalEnvironmentCanvasVisualizer\""
par SmartHomeNetwork.visualizer.physicalEnvironmentVisualizer visualizationTargetModule "\"^.^\""
par SmartHomeNetwork.visualizer.physicalEnvironmentVisualizer visualizationSubjectModule "\"^.^\""
par SmartHomeNetwork.visualizer.physicalEnvironmentVisualizer tags "\"\""
par SmartHomeNetwork.visualizer.physicalEnvironmentVisualizer physicalEnvironmentModule "\"physicalEnvironment\""
par SmartHomeNetwork.visualizer.physicalEnvironmentVisualizer displayObjects true
par SmartHomeNetwork.visualizer.physicalEnvironmentVisualizer zIndex 0
par SmartHomeNetwork.visualizer.networkNodeVisualizer typename "\"inet.visualizer.canvas.scene.NetworkNodeCanvasVisualizer\""
par SmartHomeNetwork.visualizer.networkNodeVisualizer visualizationTargetModule "\"^.^\""
par SmartHomeNetwork.visualizer.networkNodeVisualizer visualizationSubjectModule "\"^.^\""
par SmartHomeNetwork.visualizer.networkNodeVisualizer tags "\"\""
par SmartHomeNetwork.visualizer.networkNodeVisualizer nodeFilter "\"*\""
attr mutable ""
par SmartHomeNetwork.visualizer.networkNodeVisualizer annotationSpacing 4
par SmartHomeNetwork.visualizer.networkNodeVisualizer placementPenalty 10
par SmartHomeNetwork.visualizer.networkNodeVisualizer zIndex 0
par SmartHomeNetwork.visualizer.networkConnectionVisualizer typename "\"inet.visualizer.canvas.scene.NetworkConnectionCanvasVisualizer\""
par SmartHomeNetwork.visualizer.networkConnectionVisualizer visualizationTargetModule "\"^.^\""
par SmartHomeNetwork.visualizer.networkConnectionVisualizer visualizationSubjectModule "\"^.^\""
par SmartHomeNetwork.visualizer.networkConnectionVisualizer tags "\"\""
par SmartHomeNetwork.visualizer.networkConnectionVisualizer displayNetworkConnections true
par SmartHomeNetwork.visualizer.networkConnectionVisualizer nodeFilter "\"\""
attr mutable ""
par SmartHomeNetwork.visualizer.networkConnectionVisualizer lineColor "\"black\""
par SmartHomeNetwork.visualizer.networkConnectionVisualizer lineStyle "\"solid\""
par SmartHomeNetwork.visualizer.networkConnectionVisualizer lineWidth 1
par SmartHomeNetwork.visualizer.networkConnectionVisualizer zIndex 0
par SmartHomeNetwork.visualizer.mobilityVisualizer typename "\"inet.visualizer.canvas.mobility.MobilityCanvasVisualizer\""
par SmartHomeNetwork.visualizer.mobilityVisualizer visualizationTargetModule "\"^.^\""
par SmartHomeNetwork.visualizer.mobilityVisualizer visualizationSubjectModule "\"^.^\""
par SmartHomeNetwork.visualizer.mobilityVisualizer tags "\"\""
par SmartHomeNetwork.visualizer.mobilityVisualizer networkNodeVisualizerModule "\"^.networkNodeVisualizer\""
par SmartHomeNetwork.visualizer.mobilityVisualizer displayMobility true
par SmartHomeNetwork.visualizer.mobilityVisualizer animationSpeed 0
par SmartHomeNetwork.visualizer.mobilityVisualizer moduleFilter "\"**.mobility\""
attr mutable ""
par SmartHomeNetwork.visualizer.mobilityVisualizer displayPositions false
par SmartHomeNetwork.visualizer.mobilityVisualizer positionCircleRadius 4
par SmartHomeNetwork.visualizer.mobilityVisualizer positionCircleLineWidth 1
par SmartHomeNetwork.visualizer.mobilityVisualizer positionCircleLineColor "\"dark\""
par SmartHomeNetwork.visualizer.mobilityVisualizer positionCircleFillColor "\"dark\""
par SmartHomeNetwork.visualizer.mobilityVisualizer displayOrientations false
par SmartHomeNetwork.visualizer.mobilityVisualizer orientationPieRadius 32
par SmartHomeNetwork.visualizer.mobilityVisualizer orientationPieSize 0.2
par SmartHomeNetwork.visualizer.mobilityVisualizer orientationPieOpacity 0.25
par SmartHomeNetwork.visualizer.mobilityVisualizer orientationLineColor "\"black\""
par SmartHomeNetwork.visualizer.mobilityVisualizer orientationLineStyle "\"solid\""
par SmartHomeNetwork.visualizer.mobilityVisualizer orientationLineWidth 1
par SmartHomeNetwork.visualizer.mobilityVisualizer orientationFillColor "\"blue\""
par SmartHomeNetwork.visualizer.mobilityVisualizer displayVelocities false
par SmartHomeNetwork.visualizer.mobilityVisualizer velocityArrowScale 1
par SmartHomeNetwork.visualizer.mobilityVisualizer velocityLineColor "\"black\""
par SmartHomeNetwork.visualizer.mobilityVisualizer velocityLineStyle "\"solid\""
par SmartHomeNetwork.visualizer.mobilityVisualizer velocityLineWidth 1
par SmartHomeNetwork.visualizer.mobilityVisualizer displayMovementTrails false
par SmartHomeNetwork.visualizer.mobilityVisualizer movementTrailLineColor "\"dark\""
par SmartHomeNetwork.visualizer.mobilityVisualizer movementTrailLineStyle "\"solid\""
par SmartHomeNetwork.visualizer.mobilityVisualizer movementTrailLineWidth 1
par SmartHomeNetwork.visualizer.mobilityVisualizer trailLength 100
par SmartHomeNetwork.visualizer.mobilityVisualizer zIndex 0
par SmartHomeNetwork.visualizer.statisticVisualizer typename "\"inet.visualizer.canvas.common.StatisticCanvasVisualizer\""
par SmartHomeNetwork.visualizer.statisticVisualizer visualizationTargetModule "\"^.^\""
par SmartHomeNetwork.visualizer.statisticVisualizer visualizationSubjectModule "\"^.^\""
par SmartHomeNetwork.visualizer.statisticVisualizer tags "\"\""
par SmartHomeNetwork.visualizer.statisticVisualizer networkNodeVisualizerModule "\"^.networkNodeVisualizer\""
par SmartHomeNetwork.visualizer.statisticVisualizer displayStatistics true
par SmartHomeNetwork.visualizer.statisticVisualizer signalName "\"\""
par SmartHomeNetwork.visualizer.statisticVisualizer statisticName "\"\""
par SmartHomeNetwork.visualizer.statisticVisualizer statisticUnit "\"\""
par SmartHomeNetwork.visualizer.statisticVisualizer statisticExpression "\"\""
par SmartHomeNetwork.visualizer.statisticVisualizer sourceFilter "\"**\""
attr mutable ""
par SmartHomeNetwork.visualizer.statisticVisualizer format "\"%n: %v %u\""
attr mutable ""
par SmartHomeNetwork.visualizer.statisticVisualizer unit "\"\""
par SmartHomeNetwork.visualizer.statisticVisualizer font "\"<default>\""
par SmartHomeNetwork.visualizer.statisticVisualizer textColor "\"black\""
par SmartHomeNetwork.visualizer.statisticVisualizer backgroundColor "\"white\""
par SmartHomeNetwork.visualizer.statisticVisualizer opacity 1
par SmartHomeNetwork.visualizer.statisticVisualizer placementHint "\"top\""
par SmartHomeNetwork.visualizer.statisticVisualizer placementPriority 0
par SmartHomeNetwork.visualizer.statisticVisualizer zIndex 10
par SmartHomeNetwork.visualizer.statisticVisualizer propertyName "\"\""
par SmartHomeNetwork.visualizer.statisticVisualizer propertyIndex "\"\""
par SmartHomeNetwork.visualizer.infoVisualizer typename "\"inet.visualizer.canvas.common.InfoCanvasVisualizer\""
par SmartHomeNetwork.visualizer.infoVisualizer visualizationTargetModule "\"^.^\""
par SmartHomeNetwork.visualizer.infoVisualizer visualizationSubjectModule "\"^.^\""
par SmartHomeNetwork.visualizer.infoVisualizer tags "\"\""
par SmartHomeNetwork.visualizer.infoVisualizer networkNodeVisualizerModule "\"^.networkNodeVisualizer\""
par SmartHomeNetwork.visualizer.infoVisualizer displayInfos true
par SmartHomeNetwork.visualizer.infoVisualizer modules "\"\""
attr mutable ""
par SmartHomeNetwork.visualizer.infoVisualizer format "\"%t\""
attr mutable ""
par SmartHomeNetwork.visualizer.infoVisualizer font "\"<default>\""
par SmartHomeNetwork.visualizer.infoVisualizer textColor "\"black\""
par SmartHomeNetwork.visualizer.infoVisualizer backgroundColor "\"white\""
par SmartHomeNetwork.visualizer.infoVisualizer opacity 1
par SmartHomeNetwork.visualizer.infoVisualizer placementHint "\"top\""
par SmartHomeNetwork.visualizer.infoVisualizer placementPriority 0
par SmartHomeNetwork.visualizer.infoVisualizer zIndex 10
par SmartHomeNetwork.visualizer.energyStorageVisualizer typename "\"inet.visualizer.canvas.power.EnergyStorageCanvasVisualizer\""
par SmartHomeNetwork.visualizer.energyStorageVisualizer visualizationTargetModule "\"^.^\""
par SmartHomeNetwork.visualizer.energyStorageVisualizer visualizationSubjectModule "\"^.^\""
par SmartHomeNetwork.visualizer.energyStorageVisualizer tags "\"\""
par SmartHomeNetwork.visualizer.energyStorageVisualizer networkNodeVisualizerModule "\"^.networkNodeVisualizer\""
par SmartHomeNetwork.visualizer.energyStorageVisualizer displayEnergyStorages false
par SmartHomeNetwork.visualizer.energyStorageVisualizer energyStorageFilter "\"**\""
par SmartHomeNetwork.visualizer.energyStorageVisualizer color "\"green\""
par SmartHomeNetwork.visualizer.energyStorageVisualizer width 8
par SmartHomeNetwork.visualizer.energyStorageVisualizer height 24
par SmartHomeNetwork.visualizer.energyStorageVisualizer spacing 2
par SmartHomeNetwork.visualizer.energyStorageVisualizer placementHint "\"right\""
par SmartHomeNetwork.visualizer.energyStorageVisualizer placementPriority 0
par SmartHomeNetwork.visualizer.energyStorageVisualizer zIndex 10
par SmartHomeNetwork.visualizer.mediumVisualizer typename "\"inet.visualizer.canvas.physicallayer.MediumCanvasVisualizer\""
par SmartHomeNetwork.visualizer.mediumVisualizer visualizationTargetModule "\"^.^\""
par SmartHomeNetwork.visualizer.mediumVisualizer visualizationSubjectModule "\"^.^\""
par SmartHomeNetwork.visualizer.mediumVisualizer tags "\"\""
par SmartHomeNetwork.visualizer.mediumVisualizer mediumModule "\"radioMedium\""
par SmartHomeNetwork.visualizer.mediumVisualizer networkNodeVisualizerModule "\"^.networkNodeVisualizer\""
par SmartHomeNetwork.visualizer.mediumVisualizer nodeFilter "\"*\""
attr mutable ""
par SmartHomeNetwork.visualizer.mediumVisualizer interfaceFilter "\"*\""
attr mutable ""
par SmartHomeNetwork.visualizer.mediumVisualizer packetFilter "(omnetpp::cValueHolder)holder: \"*\""
attr mutable ""
par SmartHomeNetwork.visualizer.mediumVisualizer displaySignals true
par SmartHomeNetwork.visualizer.mediumVisualizer signalColor "\"dark\""
par SmartHomeNetwork.visualizer.mediumVisualizer signalPropagationAnimationSpeed "nan "
attr mutable ""
par SmartHomeNetwork.visualizer.mediumVisualizer signalPropagationAnimationTime 1s
attr unit s
par SmartHomeNetwork.visualizer.mediumVisualizer signalPropagationAdditionalTime 0s
attr unit s
par SmartHomeNetwork.visualizer.mediumVisualizer signalTransmissionAnimationSpeed "nan "
attr mutable ""
par SmartHomeNetwork.visualizer.mediumVisualizer signalTransmissionAnimationTime 1s
attr unit s
par SmartHomeNetwork.visualizer.mediumVisualizer signalAnimationSpeedChangeTimeMode "\"realTime\""
attr enum realTime,animationTime,simulationTime
par SmartHomeNetwork.visualizer.mediumVisualizer signalAnimationSpeedChangeTime 1s
attr unit s
par SmartHomeNetwork.visualizer.mediumVisualizer displaySignalDepartures false
par SmartHomeNetwork.visualizer.mediumVisualizer signalDepartureImage "\"misc/signal_departure.png\""
par SmartHomeNetwork.visualizer.mediumVisualizer signalDeparturePlacementHint "\"topCenter\""
par SmartHomeNetwork.visualizer.mediumVisualizer signalDeparturePlacementPriority 1
par SmartHomeNetwork.visualizer.mediumVisualizer displaySignalArrivals false
par SmartHomeNetwork.visualizer.mediumVisualizer signalArrivalImage "\"misc/signal_arrival.png\""
par SmartHomeNetwork.visualizer.mediumVisualizer signalArrivalPlacementHint "\"topCenter\""
par SmartHomeNetwork.visualizer.mediumVisualizer signalArrivalPlacementPriority -1
par SmartHomeNetwork.visualizer.mediumVisualizer displayCommunicationRanges false
par SmartHomeNetwork.visualizer.mediumVisualizer communicationRangeLineColor "\"blue\""
par SmartHomeNetwork.visualizer.mediumVisualizer communicationRangeLineStyle "\"solid\""
par SmartHomeNetwork.visualizer.mediumVisualizer communicationRangeLineWidth 1
par SmartHomeNetwork.visualizer.mediumVisualizer displayInterferenceRanges false
par SmartHomeNetwork.visualizer.mediumVisualizer interferenceRangeLineColor "\"gray\""
par SmartHomeNetwork.visualizer.mediumVisualizer interferenceRangeLineStyle "\"solid\""
par SmartHomeNetwork.visualizer.mediumVisualizer interferenceRangeLineWidth 1
par SmartHomeNetwork.visualizer.mediumVisualizer autoPowerAxis true
par SmartHomeNetwork.visualizer.mediumVisualizer signalMinPower "inf dBmW"
attr unit dBmW
par SmartHomeNetwork.visualizer.mediumVisualizer signalMaxPower 0dBmW
attr unit dBmW
par SmartHomeNetwork.visualizer.mediumVisualizer signalMinPowerDensity "inf dBmWpMHz"
attr unit dBmWpMHz
par SmartHomeNetwork.visualizer.mediumVisualizer signalMaxPowerDensity "-inf dBmWpMHz"
attr unit dBmWpMHz
par SmartHomeNetwork.visualizer.mediumVisualizer autoTimeAxis true
par SmartHomeNetwork.visualizer.mediumVisualizer signalMinTime 0s
attr unit s
par SmartHomeNetwork.visualizer.mediumVisualizer signalMaxTime 0s
attr unit s
par SmartHomeNetwork.visualizer.mediumVisualizer autoFrequencyAxis true
par SmartHomeNetwork.visualizer.mediumVisualizer signalMinFrequency "inf Hz"
attr unit Hz
par SmartHomeNetwork.visualizer.mediumVisualizer signalMaxFrequency "-inf Hz"
attr unit Hz
par SmartHomeNetwork.visualizer.mediumVisualizer displayMainPowerDensityMap false
par SmartHomeNetwork.visualizer.mediumVisualizer mainPowerDensityMapPixmapDensity 1
par SmartHomeNetwork.visualizer.mediumVisualizer mainPowerDensityMapMinX 0
par SmartHomeNetwork.visualizer.mediumVisualizer mainPowerDensityMapMaxX "nan "
par SmartHomeNetwork.visualizer.mediumVisualizer mainPowerDensityMapMinY 0
par SmartHomeNetwork.visualizer.mediumVisualizer mainPowerDensityMapMaxY "nan "
par SmartHomeNetwork.visualizer.mediumVisualizer mainPowerDensityMapZ 0
par SmartHomeNetwork.visualizer.mediumVisualizer mainPowerDensityMapFigureXTickCount 3
par SmartHomeNetwork.visualizer.mediumVisualizer mainPowerDensityMapFigureYTickCount 3
par SmartHomeNetwork.visualizer.mediumVisualizer displayPowerDensityMaps false
par SmartHomeNetwork.visualizer.mediumVisualizer powerDensityMapMode "\"auto\""
attr enum total,signal,auto
par SmartHomeNetwork.visualizer.mediumVisualizer powerDensityMapPixelMode "\"mean\""
attr enum sample,partition,mean
par SmartHomeNetwork.visualizer.mediumVisualizer powerDensityMapApproximationSize 10
par SmartHomeNetwork.visualizer.mediumVisualizer powerDensityMapCenterFrequency "nan Hz"
attr mutable ""
attr unit Hz
par SmartHomeNetwork.visualizer.mediumVisualizer powerDensityMapBandwidth 0Hz
attr mutable ""
attr unit Hz
par SmartHomeNetwork.visualizer.mediumVisualizer powerDensityMapFigureWidth 200
par SmartHomeNetwork.visualizer.mediumVisualizer powerDensityMapFigureHeight 120
par SmartHomeNetwork.visualizer.mediumVisualizer powerDensityMapPixmapWidth 200
par SmartHomeNetwork.visualizer.mediumVisualizer powerDensityMapPixmapHeight 120
par SmartHomeNetwork.visualizer.mediumVisualizer powerDensityMapZ 0
par SmartHomeNetwork.visualizer.mediumVisualizer powerDensityMapFigureXTickCount 3
par SmartHomeNetwork.visualizer.mediumVisualizer powerDensityMapFigureYTickCount 3
par SmartHomeNetwork.visualizer.mediumVisualizer displaySpectrums false
par SmartHomeNetwork.visualizer.mediumVisualizer spectrumMode "\"auto\""
attr enum total,signal,auto
par SmartHomeNetwork.visualizer.mediumVisualizer spectrumFigureWidth 200
par SmartHomeNetwork.visualizer.mediumVisualizer spectrumFigureHeight 120
par SmartHomeNetwork.visualizer.mediumVisualizer spectrumFigureXTickCount 3
par SmartHomeNetwork.visualizer.mediumVisualizer spectrumFigureYTickCount 5
par SmartHomeNetwork.visualizer.mediumVisualizer spectrumFigureInterpolationSize 5
par SmartHomeNetwork.visualizer.mediumVisualizer spectrumPlacementHint "\"bottomCenter\""
par SmartHomeNetwork.visualizer.mediumVisualizer spectrumPlacementPriority -1
par SmartHomeNetwork.visualizer.mediumVisualizer displaySpectrograms false
par SmartHomeNetwork.visualizer.mediumVisualizer spectrogramMode "\"auto\""
attr enum total,signal,auto
par SmartHomeNetwork.visualizer.mediumVisualizer spectrogramPixelMode "\"mean\""
attr enum sample,partition,mean
par SmartHomeNetwork.visualizer.mediumVisualizer spectrogramFigureWidth 200
par SmartHomeNetwork.visualizer.mediumVisualizer spectrogramFigureHeight 120
par SmartHomeNetwork.visualizer.mediumVisualizer spectrogramPixmapWidth 200
par SmartHomeNetwork.visualizer.mediumVisualizer spectrogramPixmapHeight 120
par SmartHomeNetwork.visualizer.mediumVisualizer spectrogramFigureXTickCount 3
par SmartHomeNetwork.visualizer.mediumVisualizer spectrogramFigureYTickCount 5
par SmartHomeNetwork.visualizer.mediumVisualizer spectrogramPlacementHint "\"bottomCenter\""
par SmartHomeNetwork.visualizer.mediumVisualizer spectrogramPlacementPriority -1
par SmartHomeNetwork.visualizer.mediumVisualizer zIndex 0
par SmartHomeNetwork.visualizer.mediumVisualizer signalShape "\"ring\""
attr enum ring,sphere
par SmartHomeNetwork.visualizer.mediumVisualizer signalOpacity 0.5
par SmartHomeNetwork.visualizer.mediumVisualizer signalRingCount 20
par SmartHomeNetwork.visualizer.mediumVisualizer signalRingSize 50m
attr unit m
par SmartHomeNetwork.visualizer.mediumVisualizer signalFadingDistance 50m
attr unit m
par SmartHomeNetwork.visualizer.mediumVisualizer signalFadingFactor 1.2
par SmartHomeNetwork.visualizer.mediumVisualizer signalWaveCount 20
par SmartHomeNetwork.visualizer.mediumVisualizer signalWaveLength 50m
attr unit m
par SmartHomeNetwork.visualizer.mediumVisualizer signalWaveWidth 10m
attr unit m
par SmartHomeNetwork.visualizer.mediumVisualizer signalWaveFadingAnimationSpeedFactor 1
par SmartHomeNetwork.visualizer.mediumVisualizer displayCommunicationHeat false
par SmartHomeNetwork.visualizer.obstacleLossVisualizer typename "\"inet.visualizer.canvas.physicallayer.TracingObstacleLossCanvasVisualizer\""
par SmartHomeNetwork.visualizer.obstacleLossVisualizer visualizationTargetModule "\"^.^\""
par SmartHomeNetwork.visualizer.obstacleLossVisualizer visualizationSubjectModule "\"^.^\""
par SmartHomeNetwork.visualizer.obstacleLossVisualizer tags "\"\""
par SmartHomeNetwork.visualizer.obstacleLossVisualizer displayIntersections false
par SmartHomeNetwork.visualizer.obstacleLossVisualizer intersectionLineColor "\"red\""
par SmartHomeNetwork.visualizer.obstacleLossVisualizer intersectionLineStyle "\"solid\""
par SmartHomeNetwork.visualizer.obstacleLossVisualizer intersectionLineWidth 1
par SmartHomeNetwork.visualizer.obstacleLossVisualizer displayFaceNormalVectors false
par SmartHomeNetwork.visualizer.obstacleLossVisualizer faceNormalLineColor "\"grey\""
par SmartHomeNetwork.visualizer.obstacleLossVisualizer faceNormalLineStyle "\"solid\""
par SmartHomeNetwork.visualizer.obstacleLossVisualizer faceNormalLineWidth 1
par SmartHomeNetwork.visualizer.obstacleLossVisualizer fadeOutMode "\"realTime\""
attr enum realTime,animationTime,simulationTime
par SmartHomeNetwork.visualizer.obstacleLossVisualizer fadeOutTime 1s
attr unit s
par SmartHomeNetwork.visualizer.obstacleLossVisualizer fadeOutAnimationSpeed 0
par SmartHomeNetwork.visualizer.obstacleLossVisualizer zIndex 0
par SmartHomeNetwork.visualizer.packetDropVisualizer typename "\"inet.visualizer.canvas.common.PacketDropCanvasVisualizer\""
par SmartHomeNetwork.visualizer.packetDropVisualizer visualizationTargetModule "\"^.^\""
par SmartHomeNetwork.visualizer.packetDropVisualizer visualizationSubjectModule "\"^.^\""
par SmartHomeNetwork.visualizer.packetDropVisualizer tags "\"\""
par SmartHomeNetwork.visualizer.packetDropVisualizer displayPacketDrops false
par SmartHomeNetwork.visualizer.packetDropVisualizer nodeFilter "\"*\""
attr mutable ""
par SmartHomeNetwork.visualizer.packetDropVisualizer interfaceFilter "\"*\""
attr mutable ""
par SmartHomeNetwork.visualizer.packetDropVisualizer packetFilter "(omnetpp::cValueHolder)holder: \"*\""
attr mutable ""
par SmartHomeNetwork.visualizer.packetDropVisualizer detailsFilter "\"*\""
attr mutable ""
par SmartHomeNetwork.visualizer.packetDropVisualizer icon "\"msg/packet_s\""
par SmartHomeNetwork.visualizer.packetDropVisualizer iconTintAmount 1
par SmartHomeNetwork.visualizer.packetDropVisualizer iconTintColor "\"dark\""
par SmartHomeNetwork.visualizer.packetDropVisualizer labelFormat "\"%n\""
attr mutable ""
par SmartHomeNetwork.visualizer.packetDropVisualizer labelFont "\"<default>\""
par SmartHomeNetwork.visualizer.packetDropVisualizer labelColor "\"black\""
par SmartHomeNetwork.visualizer.packetDropVisualizer fadeOutMode "\"realTime\""
attr enum realTime,animationTime,simulationTime
par SmartHomeNetwork.visualizer.packetDropVisualizer fadeOutTime 1s
attr unit s
par SmartHomeNetwork.visualizer.packetDropVisualizer fadeOutAnimationSpeed 0
par SmartHomeNetwork.visualizer.packetDropVisualizer zIndex 10
par SmartHomeNetwork.visualizer.packetDropVisualizer dx 32
par SmartHomeNetwork.visualizer.packetDropVisualizer dy 64
par SmartHomeNetwork.visualizer.packetFlowVisualizer typename "\"inet.visualizer.canvas.flow.PacketFlowCanvasVisualizer\""
par SmartHomeNetwork.visualizer.packetFlowVisualizer visualizationTargetModule "\"^.^\""
par SmartHomeNetwork.visualizer.packetFlowVisualizer visualizationSubjectModule "\"^.^\""
par SmartHomeNetwork.visualizer.packetFlowVisualizer tags "\"\""
par SmartHomeNetwork.visualizer.packetFlowVisualizer displayRoutes false
par SmartHomeNetwork.visualizer.packetFlowVisualizer startPathSignal "\"packetFlowStarted\""
par SmartHomeNetwork.visualizer.packetFlowVisualizer extendPathSignal "\"packetReceivedFromLower\""
par SmartHomeNetwork.visualizer.packetFlowVisualizer endPathSignal "\"packetFlowEnded\""
par SmartHomeNetwork.visualizer.packetFlowVisualizer nodeFilter "\"*\""
attr mutable ""
par SmartHomeNetwork.visualizer.packetFlowVisualizer packetFilter "(omnetpp::cValueHolder)holder: \"*\""
attr mutable ""
par SmartHomeNetwork.visualizer.packetFlowVisualizer lineColor "\"dark\""
par SmartHomeNetwork.visualizer.packetFlowVisualizer lineStyle "\"dashed\""
par SmartHomeNetwork.visualizer.packetFlowVisualizer lineWidth 3
par SmartHomeNetwork.visualizer.packetFlowVisualizer lineSmooth false
par SmartHomeNetwork.visualizer.packetFlowVisualizer lineShift 16
par SmartHomeNetwork.visualizer.packetFlowVisualizer lineShiftMode "\"normal\""
par SmartHomeNetwork.visualizer.packetFlowVisualizer lineContactSpacing 3
par SmartHomeNetwork.visualizer.packetFlowVisualizer lineContactMode "\"rectangular\""
attr enum circular,rectangular
par SmartHomeNetwork.visualizer.packetFlowVisualizer labelFormat "\"%L %p pk (%l)\""
par SmartHomeNetwork.visualizer.packetFlowVisualizer labelFont "\"<default>, 8px\""
par SmartHomeNetwork.visualizer.packetFlowVisualizer labelColor "\"\""
par SmartHomeNetwork.visualizer.packetFlowVisualizer fadeOutMode "\"realTime\""
attr enum realTime,animationTime,simulationTime
par SmartHomeNetwork.visualizer.packetFlowVisualizer fadeOutTime 0s
attr unit s
par SmartHomeNetwork.visualizer.packetFlowVisualizer fadeOutAnimationSpeed 0
par SmartHomeNetwork.visualizer.packetFlowVisualizer zIndex 4
par SmartHomeNetwork.visualizer.queueVisualizer typename "\"inet.visualizer.canvas.common.QueueCanvasVisualizer\""
par SmartHomeNetwork.visualizer.queueVisualizer visualizationTargetModule "\"^.^\""
par SmartHomeNetwork.visualizer.queueVisualizer visualizationSubjectModule "\"^.^\""
par SmartHomeNetwork.visualizer.queueVisualizer tags "\"\""
par SmartHomeNetwork.visualizer.queueVisualizer networkNodeVisualizerModule "\"^.networkNodeVisualizer\""
par SmartHomeNetwork.visualizer.queueVisualizer displayQueues false
par SmartHomeNetwork.visualizer.queueVisualizer queueFilter "\"**\""
par SmartHomeNetwork.visualizer.queueVisualizer color "\"blue\""
par SmartHomeNetwork.visualizer.queueVisualizer width 8
par SmartHomeNetwork.visualizer.queueVisualizer height 24
par SmartHomeNetwork.visualizer.queueVisualizer spacing 2
par SmartHomeNetwork.visualizer.queueVisualizer placementHint "\"right\""
par SmartHomeNetwork.visualizer.queueVisualizer placementPriority 0
par SmartHomeNetwork.visualizer.queueVisualizer zIndex 10
par SmartHomeNetwork.visualizer.gateScheduleVisualizer typename "\"inet.visualizer.canvas.common.GateScheduleCanvasVisualizer\""
par SmartHomeNetwork.visualizer.gateScheduleVisualizer visualizationTargetModule "\"^.^\""
par SmartHomeNetwork.visualizer.gateScheduleVisualizer visualizationSubjectModule "\"^.^\""
par SmartHomeNetwork.visualizer.gateScheduleVisualizer tags "\"\""
par SmartHomeNetwork.visualizer.gateScheduleVisualizer networkNodeVisualizerModule "\"^.networkNodeVisualizer\""
par SmartHomeNetwork.visualizer.gateScheduleVisualizer displayGateSchedules false
par SmartHomeNetwork.visualizer.gateScheduleVisualizer labelFormat "\"%i %D\""
par SmartHomeNetwork.visualizer.gateScheduleVisualizer gateFilter "\"**\""
par SmartHomeNetwork.visualizer.gateScheduleVisualizer width 100
par SmartHomeNetwork.visualizer.gateScheduleVisualizer height 8
par SmartHomeNetwork.visualizer.gateScheduleVisualizer spacing 2
par SmartHomeNetwork.visualizer.gateScheduleVisualizer placementHint "\"right\""
par SmartHomeNetwork.visualizer.gateScheduleVisualizer placementPriority 0
par SmartHomeNetwork.visualizer.gateScheduleVisualizer displayDuration 0s
attr mutable ""
attr unit s
par SmartHomeNetwork.visualizer.gateScheduleVisualizer currentTimePosition 50
par SmartHomeNetwork.visualizer.gateScheduleVisualizer zIndex 10
par SmartHomeNetwork.visualizer.radioVisualizer typename "\"inet.visualizer.canvas.physicallayer.RadioCanvasVisualizer\""
par SmartHomeNetwork.visualizer.radioVisualizer visualizationTargetModule "\"^.^\""
par SmartHomeNetwork.visualizer.radioVisualizer visualizationSubjectModule "\"^.^\""
par SmartHomeNetwork.visualizer.radioVisualizer tags "\"\""
par SmartHomeNetwork.visualizer.radioVisualizer networkNodeVisualizerModule "\"^.networkNodeVisualizer\""
par SmartHomeNetwork.visualizer.radioVisualizer displayRadios false
par SmartHomeNetwork.visualizer.radioVisualizer displayRadioMode true
par SmartHomeNetwork.visualizer.radioVisualizer displayReceptionState true
par SmartHomeNetwork.visualizer.radioVisualizer displayTransmissionState true
par SmartHomeNetwork.visualizer.radioVisualizer displayAntennaLobes false
par SmartHomeNetwork.visualizer.radioVisualizer radioFilter "\"**\""
attr mutable ""
par SmartHomeNetwork.visualizer.radioVisualizer radioModeImages "\"block/process_vs block/timer_vs block/wrx_vs block/wtx_vs block/wrxtx_vs block/cogwheel_vs\""
par SmartHomeNetwork.visualizer.radioVisualizer receptionStateImages "\"- - misc/receiving misc/receiving\""
par SmartHomeNetwork.visualizer.radioVisualizer transmissionStateImages "\"- - misc/transmitting\""
par SmartHomeNetwork.visualizer.radioVisualizer width 16
par SmartHomeNetwork.visualizer.radioVisualizer height 16
par SmartHomeNetwork.visualizer.radioVisualizer placementHint "\"bottomRight\""
par SmartHomeNetwork.visualizer.radioVisualizer placementPriority 0
par SmartHomeNetwork.visualizer.radioVisualizer antennaLobeNormalize false
par SmartHomeNetwork.visualizer.radioVisualizer antennaLobeRelativeLabels false
par SmartHomeNetwork.visualizer.radioVisualizer antennaLobePlaneGlobal true
par SmartHomeNetwork.visualizer.radioVisualizer antennaLobePlane "\"view\""
attr enum view,xy,xz,yz
par SmartHomeNetwork.visualizer.radioVisualizer antennaLobeMode "\"logarithmic\""
attr enum logarithmic,linear
par SmartHomeNetwork.visualizer.radioVisualizer antennaLobeLogarithmicBase 10
par SmartHomeNetwork.visualizer.radioVisualizer antennaLobeLogarithmicScale 100
par SmartHomeNetwork.visualizer.radioVisualizer antennaLobeRadius 100
par SmartHomeNetwork.visualizer.radioVisualizer antennaLobeStep 10deg
attr unit deg
par SmartHomeNetwork.visualizer.radioVisualizer antennaLobeOpacity 0.25
par SmartHomeNetwork.visualizer.radioVisualizer antennaLobeLineSmooth true
par SmartHomeNetwork.visualizer.radioVisualizer antennaLobeLineColor "\"black\""
par SmartHomeNetwork.visualizer.radioVisualizer antennaLobeLineStyle "\"solid\""
par SmartHomeNetwork.visualizer.radioVisualizer antennaLobeLineWidth 1
par SmartHomeNetwork.visualizer.radioVisualizer antennaLobeFillColor "\"white\""
par SmartHomeNetwork.visualizer.radioVisualizer zIndex 10
par SmartHomeNetwork.visualizer.physicalLinkVisualizer typename "\"inet.visualizer.canvas.physicallayer.PhysicalLinkCanvasVisualizer\""
par SmartHomeNetwork.visualizer.physicalLinkVisualizer visualizationTargetModule "\"^.^\""
par SmartHomeNetwork.visualizer.physicalLinkVisualizer visualizationSubjectModule "\"^.^\""
par SmartHomeNetwork.visualizer.physicalLinkVisualizer tags "\"\""
par SmartHomeNetwork.visualizer.physicalLinkVisualizer displayLinks true
par SmartHomeNetwork.visualizer.physicalLinkVisualizer activityLevel "\"service\""
attr enum service,peer,protocol
par SmartHomeNetwork.visualizer.physicalLinkVisualizer nodeFilter "\"*\""
attr mutable ""
par SmartHomeNetwork.visualizer.physicalLinkVisualizer interfaceFilter "\"*\""
attr mutable ""
par SmartHomeNetwork.visualizer.physicalLinkVisualizer packetFilter "(omnetpp::cValueHolder)holder: \"*\""
attr mutable ""
par SmartHomeNetwork.visualizer.physicalLinkVisualizer lineColor "\"olive\""
par SmartHomeNetwork.visualizer.physicalLinkVisualizer lineStyle "\"dotted\""
par SmartHomeNetwork.visualizer.physicalLinkVisualizer lineWidth 3
par SmartHomeNetwork.visualizer.physicalLinkVisualizer lineShift 16
par SmartHomeNetwork.visualizer.physicalLinkVisualizer lineShiftMode "\"normal\""
par SmartHomeNetwork.visualizer.physicalLinkVisualizer lineContactSpacing 3
par SmartHomeNetwork.visualizer.physicalLinkVisualizer lineContactMode "\"rectangular\""
attr enum circular,rectangular
par SmartHomeNetwork.visualizer.physicalLinkVisualizer labelFormat "\"%n\""
par SmartHomeNetwork.visualizer.physicalLinkVisualizer labelFont "\"<default>, 8px\""
par SmartHomeNetwork.visualizer.physicalLinkVisualizer labelColor "\"olive\""
par SmartHomeNetwork.visualizer.physicalLinkVisualizer fadeOutMode "\"realTime\""
attr enum realTime,animationTime,simulationTime
par SmartHomeNetwork.visualizer.physicalLinkVisualizer fadeOutTime 1s
attr unit s
par SmartHomeNetwork.visualizer.physicalLinkVisualizer fadeOutAnimationSpeed 0
par SmartHomeNetwork.visualizer.physicalLinkVisualizer holdAnimationTime 0s
attr unit s
par SmartHomeNetwork.visualizer.physicalLinkVisualizer zIndex 1
par SmartHomeNetwork.visualizer.interfaceTableVisualizer typename "\"inet.visualizer.canvas.linklayer.InterfaceTableCanvasVisualizer\""
par SmartHomeNetwork.visualizer.interfaceTableVisualizer visualizationTargetModule "\"^.^\""
par SmartHomeNetwork.visualizer.interfaceTableVisualizer visualizationSubjectModule "\"^.^\""
par SmartHomeNetwork.visualizer.interfaceTableVisualizer tags "\"\""
par SmartHomeNetwork.visualizer.interfaceTableVisualizer networkNodeVisualizerModule "\"^.networkNodeVisualizer\""
par SmartHomeNetwork.visualizer.interfaceTableVisualizer displayInterfaceTables false
par SmartHomeNetwork.visualizer.interfaceTableVisualizer displayWiredInterfacesAtConnections true
par SmartHomeNetwork.visualizer.interfaceTableVisualizer displayBackground false
par SmartHomeNetwork.visualizer.interfaceTableVisualizer nodeFilter "\"*\""
attr mutable ""
par SmartHomeNetwork.visualizer.interfaceTableVisualizer interfaceFilter "\"not(lo*)\""
attr mutable ""
par SmartHomeNetwork.visualizer.interfaceTableVisualizer format "\"%N %\\\\%a%/%l\""
attr mutable ""
par SmartHomeNetwork.visualizer.interfaceTableVisualizer placementHint "\"top\""
par SmartHomeNetwork.visualizer.interfaceTableVisualizer placementPriority 0
par SmartHomeNetwork.visualizer.interfaceTableVisualizer font "\"<default>\""
par SmartHomeNetwork.visualizer.interfaceTableVisualizer textColor "\"#005030\""
par SmartHomeNetwork.visualizer.interfaceTableVisualizer backgroundColor "\"white\""
par SmartHomeNetwork.visualizer.interfaceTableVisualizer opacity 1
par SmartHomeNetwork.visualizer.interfaceTableVisualizer zIndex 10
par SmartHomeNetwork.visualizer.dataLinkVisualizer typename "\"inet.visualizer.canvas.linklayer.DataLinkCanvasVisualizer\""
par SmartHomeNetwork.visualizer.dataLinkVisualizer visualizationTargetModule "\"^.^\""
par SmartHomeNetwork.visualizer.dataLinkVisualizer visualizationSubjectModule "\"^.^\""
par SmartHomeNetwork.visualizer.dataLinkVisualizer tags "\"\""
par SmartHomeNetwork.visualizer.dataLinkVisualizer displayLinks false
par SmartHomeNetwork.visualizer.dataLinkVisualizer activityLevel "\"service\""
attr enum service,peer,protocol
par SmartHomeNetwork.visualizer.dataLinkVisualizer nodeFilter "\"*\""
attr mutable ""
par SmartHomeNetwork.visualizer.dataLinkVisualizer interfaceFilter "\"*\""
attr mutable ""
par SmartHomeNetwork.visualizer.dataLinkVisualizer packetFilter "(omnetpp::cValueHolder)holder: \"*\""
attr mutable ""
par SmartHomeNetwork.visualizer.dataLinkVisualizer lineColor "\"darkcyan\""
par SmartHomeNetwork.visualizer.dataLinkVisualizer lineStyle "\"solid\""
par SmartHomeNetwork.visualizer.dataLinkVisualizer lineWidth 3
par SmartHomeNetwork.visualizer.dataLinkVisualizer lineShift 16
par SmartHomeNetwork.visualizer.dataLinkVisualizer lineShiftMode "\"normal\""
par SmartHomeNetwork.visualizer.dataLinkVisualizer lineContactSpacing 3
par SmartHomeNetwork.visualizer.dataLinkVisualizer lineContactMode "\"rectangular\""
attr enum circular,rectangular
par SmartHomeNetwork.visualizer.dataLinkVisualizer labelFormat "\"%n\""
par SmartHomeNetwork.visualizer.dataLinkVisualizer labelFont "\"<default>, 8px\""
par SmartHomeNetwork.visualizer.dataLinkVisualizer labelColor "\"darkcyan\""
par SmartHomeNetwork.visualizer.dataLinkVisualizer fadeOutMode "\"realTime\""
attr enum realTime,animationTime,simulationTime
par SmartHomeNetwork.visualizer.dataLinkVisualizer fadeOutTime 1s
attr unit s
par SmartHomeNetwork.visualizer.dataLinkVisualizer fadeOutAnimationSpeed 0
par SmartHomeNetwork.visualizer.dataLinkVisualizer holdAnimationTime 0s
attr unit s
par SmartHomeNetwork.visualizer.dataLinkVisualizer zIndex 2
par SmartHomeNetwork.visualizer.linkBreakVisualizer typename "\"inet.visualizer.canvas.linklayer.LinkBreakCanvasVisualizer\""
par SmartHomeNetwork.visualizer.linkBreakVisualizer visualizationTargetModule "\"^.^\""
par SmartHomeNetwork.visualizer.linkBreakVisualizer visualizationSubjectModule "\"^.^\""
par SmartHomeNetwork.visualizer.linkBreakVisualizer tags "\"\""
par SmartHomeNetwork.visualizer.linkBreakVisualizer displayLinkBreaks false
par SmartHomeNetwork.visualizer.linkBreakVisualizer nodeFilter "\"*\""
attr mutable ""
par SmartHomeNetwork.visualizer.linkBreakVisualizer interfaceFilter "\"*\""
attr mutable ""
par SmartHomeNetwork.visualizer.linkBreakVisualizer packetFilter "(omnetpp::cValueHolder)holder: \"*\""
attr mutable ""
par SmartHomeNetwork.visualizer.linkBreakVisualizer icon "\"status/stop\""
par SmartHomeNetwork.visualizer.linkBreakVisualizer iconTintAmount 0
par SmartHomeNetwork.visualizer.linkBreakVisualizer iconTintColor "\"\""
par SmartHomeNetwork.visualizer.linkBreakVisualizer fadeOutMode "\"realTime\""
attr enum realTime,animationTime,simulationTime
par SmartHomeNetwork.visualizer.linkBreakVisualizer fadeOutTime 1s
attr unit s
par SmartHomeNetwork.visualizer.linkBreakVisualizer fadeOutAnimationSpeed 0
par SmartHomeNetwork.visualizer.linkBreakVisualizer zIndex 2
par SmartHomeNetwork.visualizer.ieee80211Visualizer typename "\"inet.visualizer.canvas.linklayer.Ieee80211CanvasVisualizer\""
par SmartHomeNetwork.visualizer.ieee80211Visualizer visualizationTargetModule "\"^.^\""
par SmartHomeNetwork.visualizer.ieee80211Visualizer visualizationSubjectModule "\"^.^\""
par SmartHomeNetwork.visualizer.ieee80211Visualizer tags "\"\""
par SmartHomeNetwork.visualizer.ieee80211Visualizer networkNodeVisualizerModule "\"^.networkNodeVisualizer\""
par SmartHomeNetwork.visualizer.ieee80211Visualizer displayAssociations false
par SmartHomeNetwork.visualizer.ieee80211Visualizer nodeFilter "\"*\""
attr mutable ""
par SmartHomeNetwork.visualizer.ieee80211Visualizer interfaceFilter "\"*\""
attr mutable ""
par SmartHomeNetwork.visualizer.ieee80211Visualizer minPower -85dBm
attr unit dBm
par SmartHomeNetwork.visualizer.ieee80211Visualizer maxPower -50dBm
attr unit dBm
par SmartHomeNetwork.visualizer.ieee80211Visualizer icons "\"misc/signal_power_0 misc/signal_power_1 misc/signal_power_2 misc/signal_power_3\""
par SmartHomeNetwork.visualizer.ieee80211Visualizer iconColor "\"dark\""
par SmartHomeNetwork.visualizer.ieee80211Visualizer labelFont "\"<default>\""
par SmartHomeNetwork.visualizer.ieee80211Visualizer labelColor "\"black\""
par SmartHomeNetwork.visualizer.ieee80211Visualizer placementHint "\"top\""
par SmartHomeNetwork.visualizer.ieee80211Visualizer placementPriority 0
par SmartHomeNetwork.visualizer.ieee80211Visualizer zIndex 2
par SmartHomeNetwork.visualizer.networkRouteVisualizer typename "\"inet.visualizer.canvas.networklayer.NetworkRouteCanvasVisualizer\""
par SmartHomeNetwork.visualizer.networkRouteVisualizer visualizationTargetModule "\"^.^\""
par SmartHomeNetwork.visualizer.networkRouteVisualizer visualizationSubjectModule "\"^.^\""
par SmartHomeNetwork.visualizer.networkRouteVisualizer tags "\"\""
par SmartHomeNetwork.visualizer.networkRouteVisualizer displayRoutes false
par SmartHomeNetwork.visualizer.networkRouteVisualizer startPathSignal "\"packetReceivedFromUpper\""
par SmartHomeNetwork.visualizer.networkRouteVisualizer extendPathSignal "\"packetReceivedFromLower\""
par SmartHomeNetwork.visualizer.networkRouteVisualizer endPathSignal "\"packetSentToUpper\""
par SmartHomeNetwork.visualizer.networkRouteVisualizer nodeFilter "\"*\""
attr mutable ""
par SmartHomeNetwork.visualizer.networkRouteVisualizer packetFilter "(omnetpp::cValueHolder)holder: \"*\""
attr mutable ""
par SmartHomeNetwork.visualizer.networkRouteVisualizer lineColor "\"dark\""
par SmartHomeNetwork.visualizer.networkRouteVisualizer lineStyle "\"solid\""
par SmartHomeNetwork.visualizer.networkRouteVisualizer lineWidth 3
par SmartHomeNetwork.visualizer.networkRouteVisualizer lineSmooth false
par SmartHomeNetwork.visualizer.networkRouteVisualizer lineShift 16
par SmartHomeNetwork.visualizer.networkRouteVisualizer lineShiftMode "\"normal\""
par SmartHomeNetwork.visualizer.networkRouteVisualizer lineContactSpacing 3
par SmartHomeNetwork.visualizer.networkRouteVisualizer lineContactMode "\"rectangular\""
attr enum circular,rectangular
par SmartHomeNetwork.visualizer.networkRouteVisualizer labelFormat "\"%n\""
par SmartHomeNetwork.visualizer.networkRouteVisualizer labelFont "\"<default>, 8px\""
par SmartHomeNetwork.visualizer.networkRouteVisualizer labelColor "\"\""
par SmartHomeNetwork.visualizer.networkRouteVisualizer fadeOutMode "\"realTime\""
attr enum realTime,animationTime,simulationTime
par SmartHomeNetwork.visualizer.networkRouteVisualizer fadeOutTime 1s
attr unit s
par SmartHomeNetwork.visualizer.networkRouteVisualizer fadeOutAnimationSpeed 0
par SmartHomeNetwork.visualizer.networkRouteVisualizer zIndex 3
par SmartHomeNetwork.visualizer.routingTableVisualizer typename "\"inet.visualizer.canvas.networklayer.RoutingTableCanvasVisualizer\""
par SmartHomeNetwork.visualizer.routingTableVisualizer visualizationTargetModule "\"^.^\""
par SmartHomeNetwork.visualizer.routingTableVisualizer visualizationSubjectModule "\"^.^\""
par SmartHomeNetwork.visualizer.routingTableVisualizer tags "\"\""
par SmartHomeNetwork.visualizer.routingTableVisualizer displayRoutingTables false
par SmartHomeNetwork.visualizer.routingTableVisualizer displayRoutesIndividually true
par SmartHomeNetwork.visualizer.routingTableVisualizer displayLabels true
par SmartHomeNetwork.visualizer.routingTableVisualizer destinationFilter "\"*\""
attr mutable ""
par SmartHomeNetwork.visualizer.routingTableVisualizer nodeFilter "\"*\""
attr mutable ""
par SmartHomeNetwork.visualizer.routingTableVisualizer lineColor "\"black\""
par SmartHomeNetwork.visualizer.routingTableVisualizer lineStyle "\"solid\""
par SmartHomeNetwork.visualizer.routingTableVisualizer lineWidth 2
par SmartHomeNetwork.visualizer.routingTableVisualizer lineShift 16
par SmartHomeNetwork.visualizer.routingTableVisualizer lineShiftMode "\"normal\""
par SmartHomeNetwork.visualizer.routingTableVisualizer lineContactSpacing 3
par SmartHomeNetwork.visualizer.routingTableVisualizer lineContactMode "\"rectangular\""
attr enum circular,rectangular
par SmartHomeNetwork.visualizer.routingTableVisualizer labelFormat "\"%d/%m -> %g (%n)\""
attr mutable ""
par SmartHomeNetwork.visualizer.routingTableVisualizer labelFont "\"<default>, 8px\""
par SmartHomeNetwork.visualizer.routingTableVisualizer labelColor "\"black\""
par SmartHomeNetwork.visualizer.routingTableVisualizer zIndex 0
par SmartHomeNetwork.visualizer.transportRouteVisualizer typename "\"inet.visualizer.canvas.transportlayer.TransportRouteCanvasVisualizer\""
par SmartHomeNetwork.visualizer.transportRouteVisualizer visualizationTargetModule "\"^.^\""
par SmartHomeNetwork.visualizer.transportRouteVisualizer visualizationSubjectModule "\"^.^\""
par SmartHomeNetwork.visualizer.transportRouteVisualizer tags "\"\""
par SmartHomeNetwork.visualizer.transportRouteVisualizer displayRoutes false
par SmartHomeNetwork.visualizer.transportRouteVisualizer startPathSignal "\"packetReceivedFromUpper\""
par SmartHomeNetwork.visualizer.transportRouteVisualizer extendPathSignal "\"packetReceivedFromLower\""
par SmartHomeNetwork.visualizer.transportRouteVisualizer endPathSignal "\"packetSentToUpper\""
par SmartHomeNetwork.visualizer.transportRouteVisualizer nodeFilter "\"*\""
attr mutable ""
par SmartHomeNetwork.visualizer.transportRouteVisualizer packetFilter "(omnetpp::cValueHolder)holder: \"*\""
attr mutable ""
par SmartHomeNetwork.visualizer.transportRouteVisualizer lineColor "\"dark\""
par SmartHomeNetwork.visualizer.transportRouteVisualizer lineStyle "\"solid\""
par SmartHomeNetwork.visualizer.transportRouteVisualizer lineWidth 3
par SmartHomeNetwork.visualizer.transportRouteVisualizer lineSmooth false
par SmartHomeNetwork.visualizer.transportRouteVisualizer lineShift 16
par SmartHomeNetwork.visualizer.transportRouteVisualizer lineShiftMode "\"normal\""
par SmartHomeNetwork.visualizer.transportRouteVisualizer lineContactSpacing 3
par SmartHomeNetwork.visualizer.transportRouteVisualizer lineContactMode "\"rectangular\""
attr enum circular,rectangular
par SmartHomeNetwork.visualizer.transportRouteVisualizer labelFormat "\"%n\""
par SmartHomeNetwork.visualizer.transportRouteVisualizer labelFont "\"<default>, 8px\""
par SmartHomeNetwork.visualizer.transportRouteVisualizer labelColor "\"\""
par SmartHomeNetwork.visualizer.transportRouteVisualizer fadeOutMode "\"realTime\""
attr enum realTime,animationTime,simulationTime
par SmartHomeNetwork.visualizer.transportRouteVisualizer fadeOutTime 1s
attr unit s
par SmartHomeNetwork.visualizer.transportRouteVisualizer fadeOutAnimationSpeed 0
par SmartHomeNetwork.visualizer.transportRouteVisualizer zIndex 4
par SmartHomeNetwork.visualizer.transportConnectionVisualizer typename "\"inet.visualizer.canvas.transportlayer.TransportConnectionCanvasVisualizer\""
par SmartHomeNetwork.visualizer.transportConnectionVisualizer visualizationTargetModule "\"^.^\""
par SmartHomeNetwork.visualizer.transportConnectionVisualizer visualizationSubjectModule "\"^.^\""
par SmartHomeNetwork.visualizer.transportConnectionVisualizer tags "\"\""
par SmartHomeNetwork.visualizer.transportConnectionVisualizer networkNodeVisualizerModule "\"^.networkNodeVisualizer\""
par SmartHomeNetwork.visualizer.transportConnectionVisualizer displayTransportConnections false
par SmartHomeNetwork.visualizer.transportConnectionVisualizer sourceNodeFilter "\"*\""
attr mutable ""
par SmartHomeNetwork.visualizer.transportConnectionVisualizer sourcePortFilter "\"*\""
attr mutable ""
par SmartHomeNetwork.visualizer.transportConnectionVisualizer destinationNodeFilter "\"*\""
attr mutable ""
par SmartHomeNetwork.visualizer.transportConnectionVisualizer destinationPortFilter "\"*\""
attr mutable ""
par SmartHomeNetwork.visualizer.transportConnectionVisualizer icon "\"misc/marker_s\""
par SmartHomeNetwork.visualizer.transportConnectionVisualizer iconColor "\"dark\""
par SmartHomeNetwork.visualizer.transportConnectionVisualizer labelFont "\"<default>\""
par SmartHomeNetwork.visualizer.transportConnectionVisualizer labelColor "\"black\""
par SmartHomeNetwork.visualizer.transportConnectionVisualizer placementHint "\"top\""
par SmartHomeNetwork.visualizer.transportConnectionVisualizer placementPriority 0
par SmartHomeNetwork.visualizer.transportConnectionVisualizer zIndex 4
par SmartHomeNetwork.visualizer.failureProtectionConfigurationVisualizer typename "\"inet.visualizer.canvas.configurator.FailureProtectionConfigurationCanvasVisualizer\""
par SmartHomeNetwork.visualizer.failureProtectionConfigurationVisualizer visualizationTargetModule "\"^.^\""
par SmartHomeNetwork.visualizer.failureProtectionConfigurationVisualizer visualizationSubjectModule "\"^.^\""
par SmartHomeNetwork.visualizer.failureProtectionConfigurationVisualizer tags "\"\""
par SmartHomeNetwork.visualizer.failureProtectionConfigurationVisualizer displayTrees false
par SmartHomeNetwork.visualizer.failureProtectionConfigurationVisualizer lineColor "\"dark\""
par SmartHomeNetwork.visualizer.failureProtectionConfigurationVisualizer lineStyle "\"solid\""
par SmartHomeNetwork.visualizer.failureProtectionConfigurationVisualizer lineWidth 3
par SmartHomeNetwork.visualizer.failureProtectionConfigurationVisualizer lineSmooth false
par SmartHomeNetwork.visualizer.failureProtectionConfigurationVisualizer lineShift 16
par SmartHomeNetwork.visualizer.failureProtectionConfigurationVisualizer lineShiftMode "\"normal\""
par SmartHomeNetwork.visualizer.failureProtectionConfigurationVisualizer lineContactSpacing 3
par SmartHomeNetwork.visualizer.failureProtectionConfigurationVisualizer lineContactMode "\"rectangular\""
attr enum circular,rectangular
par SmartHomeNetwork.visualizer.failureProtectionConfigurationVisualizer failureProtectionConfiguratorModule "\"failureProtectionConfigurator\""
par SmartHomeNetwork.visualizer.failureProtectionConfigurationVisualizer streamFilter "\"*\""
par SmartHomeNetwork.visualizer.failureProtectionConfigurationVisualizer zIndex 3
par SmartHomeNetwork.visualizer.streamRedundancyConfigurationVisualizer typename "\"inet.visualizer.canvas.configurator.StreamRedundancyConfigurationCanvasVisualizer\""
par SmartHomeNetwork.visualizer.streamRedundancyConfigurationVisualizer visualizationTargetModule "\"^.^\""
par SmartHomeNetwork.visualizer.streamRedundancyConfigurationVisualizer visualizationSubjectModule "\"^.^\""
par SmartHomeNetwork.visualizer.streamRedundancyConfigurationVisualizer tags "\"\""
par SmartHomeNetwork.visualizer.streamRedundancyConfigurationVisualizer displayTrees false
par SmartHomeNetwork.visualizer.streamRedundancyConfigurationVisualizer lineColor "\"dark\""
par SmartHomeNetwork.visualizer.streamRedundancyConfigurationVisualizer lineStyle "\"solid\""
par SmartHomeNetwork.visualizer.streamRedundancyConfigurationVisualizer lineWidth 3
par SmartHomeNetwork.visualizer.streamRedundancyConfigurationVisualizer lineSmooth false
par SmartHomeNetwork.visualizer.streamRedundancyConfigurationVisualizer lineShift 16
par SmartHomeNetwork.visualizer.streamRedundancyConfigurationVisualizer lineShiftMode "\"normal\""
par SmartHomeNetwork.visualizer.streamRedundancyConfigurationVisualizer lineContactSpacing 3
par SmartHomeNetwork.visualizer.streamRedundancyConfigurationVisualizer lineContactMode "\"rectangular\""
attr enum circular,rectangular
par SmartHomeNetwork.visualizer.streamRedundancyConfigurationVisualizer streamRedundancyConfiguratorModule "\"streamRedundancyConfigurator\""
par SmartHomeNetwork.visualizer.streamRedundancyConfigurationVisualizer streamFilter "\"*\""
par SmartHomeNetwork.visualizer.streamRedundancyConfigurationVisualizer zIndex 3
par SmartHomeNetwork.visualizer typename "\"inet.visualizer.canvas.integrated.IntegratedCanvasVisualizer\""
par SmartHomeNetwork.radioMedium.propagation typename "\"inet.physicallayer.wireless.common.propagation.ConstantSpeedPropagation\""
par SmartHomeNetwork.radioMedium.propagation propagationSpeed 2.99792e+08mps
attr unit mps
par SmartHomeNetwork.radioMedium.propagation ignoreMovementDuringTransmission true
par SmartHomeNetwork.radioMedium.propagation ignoreMovementDuringPropagation true
par SmartHomeNetwork.radioMedium.propagation ignoreMovementDuringReception true
scalar SmartHomeNetwork.radioMedium.propagation "Arrival computation count" 4140
par SmartHomeNetwork.radioMedium.analogModel typename "\"inet.physicallayer.wireless.common.analogmodel.packetlevel.ScalarAnalogModel\""
par SmartHomeNetwork.radioMedium.analogModel ignorePartialInterference false
par SmartHomeNetwork.radioMedium.backgroundNoise typename "\"inet.physicallayer.wireless.common.backgroundnoise.IsotropicScalarBackgroundNoise\""
par SmartHomeNetwork.radioMedium.backgroundNoise power -110dBm
attr unit dBm
par SmartHomeNetwork.radioMedium.backgroundNoise bandwidth "nan Hz"
attr unit Hz
par SmartHomeNetwork.radioMedium.pathLoss typename "\"inet.physicallayer.wireless.common.pathloss.FreeSpacePathLoss\""
par SmartHomeNetwork.radioMedium.pathLoss alpha 2
par SmartHomeNetwork.radioMedium.pathLoss systemLoss 0dB
attr unit dB
par SmartHomeNetwork.radioMedium.obstacleLoss typename "\"inet.physicallayer.wireless.common.obstacleloss.DielectricObstacleLoss\""
par SmartHomeNetwork.radioMedium.obstacleLoss physicalEnvironmentModule "\"physicalEnvironment\""
par SmartHomeNetwork.radioMedium.obstacleLoss enableDielectricLoss true
par SmartHomeNetwork.radioMedium.obstacleLoss enableReflectionLoss true
scalar SmartHomeNetwork.radioMedium.obstacleLoss "Obstacle loss intersection computation count" 8280
scalar SmartHomeNetwork.radioMedium.obstacleLoss "Obstacle loss intersection count" 1396
par SmartHomeNetwork.radioMedium.mediumLimitCache typename "\"inet.physicallayer.wireless.common.medium.MediumLimitCache\""
par SmartHomeNetwork.radioMedium.mediumLimitCache centerFrequency 2.4e+09Hz
attr unit Hz
par SmartHomeNetwork.radioMedium.mediumLimitCache maxSpeed "nan mps"
attr unit mps
par SmartHomeNetwork.radioMedium.mediumLimitCache maxTransmissionPower "nan W"
attr unit W
par SmartHomeNetwork.radioMedium.mediumLimitCache minInterferencePower -110dBm
attr unit dBm
par SmartHomeNetwork.radioMedium.mediumLimitCache minReceptionPower -85dBm
attr unit dBm
par SmartHomeNetwork.radioMedium.mediumLimitCache maxAntennaGain 0dB
attr unit dB
par SmartHomeNetwork.radioMedium.mediumLimitCache minInterferenceTime 1e-12s
attr unit s
par SmartHomeNetwork.radioMedium.mediumLimitCache maxTransmissionDuration 0.01s
attr unit s
par SmartHomeNetwork.radioMedium.mediumLimitCache maxCommunicationRange "nan m"
attr unit m
par SmartHomeNetwork.radioMedium.mediumLimitCache maxInterferenceRange "nan m"
attr unit m
par SmartHomeNetwork.radioMedium.communicationCache typename "\"inet.physicallayer.wireless.common.communicationcache.VectorCommunicationCache\""
par SmartHomeNetwork.radioMedium typename "\"inet.physicallayer.wireless.ieee80211.packetlevel.Ieee80211ScalarRadioMedium\""
par SmartHomeNetwork.radioMedium physicalEnvironmentModule "\"physicalEnvironment\""
par SmartHomeNetwork.radioMedium signalAnalogRepresentation "\"scalar\""
attr enum unitDisk,scalar,dimensional
par SmartHomeNetwork.radioMedium rangeFilter "\"\""
par SmartHomeNetwork.radioMedium radioModeFilter false
par SmartHomeNetwork.radioMedium listeningFilter false
par SmartHomeNetwork.radioMedium macAddressFilter false
par SmartHomeNetwork.radioMedium recordTransmissionLog false
par SmartHomeNetwork.radioMedium recordReceptionLog false
scalar SmartHomeNetwork.radioMedium "transmission count" 690
scalar SmartHomeNetwork.radioMedium "signal send count" 4140
scalar SmartHomeNetwork.radioMedium "reception computation count" 4140
scalar SmartHomeNetwork.radioMedium "interference computation count" 13124
scalar SmartHomeNetwork.radioMedium "reception decision computation count" 4140
scalar SmartHomeNetwork.radioMedium "listening decision computation count" 4844
scalar SmartHomeNetwork.radioMedium "reception cache hit" 85.714285714286
attr unit %
scalar SmartHomeNetwork.radioMedium "interference cache hit" 66.666666666667
attr unit %
scalar SmartHomeNetwork.radioMedium "noise cache hit" 0
attr unit %
scalar SmartHomeNetwork.radioMedium "snir cache hit" 50
attr unit %
scalar SmartHomeNetwork.radioMedium "reception decision cache hit" 50
attr unit %
scalar SmartHomeNetwork.radioMedium "reception result cache hit" 0
attr unit %
par SmartHomeNetwork.configurator typename "\"inet.networklayer.configurator.ipv4.Ipv4NetworkConfigurator\""
par SmartHomeNetwork.configurator minLinkWeight 0.001
par SmartHomeNetwork.configurator configureIsolatedNetworksSeparatly false
par SmartHomeNetwork.configurator config "<config>...</config> at content:1"
par SmartHomeNetwork.configurator assignAddresses true
par SmartHomeNetwork.configurator assignUniqueAddresses true
par SmartHomeNetwork.configurator assignDisjunctSubnetAddresses true
par SmartHomeNetwork.configurator addStaticRoutes true
par SmartHomeNetwork.configurator addDefaultRoutes true
par SmartHomeNetwork.configurator addSubnetRoutes true
par SmartHomeNetwork.configurator addDirectRoutes true
par SmartHomeNetwork.configurator optimizeRoutes true
par SmartHomeNetwork.configurator dumpTopology false
par SmartHomeNetwork.configurator dumpLinks false
par SmartHomeNetwork.configurator dumpAddresses false
par SmartHomeNetwork.configurator dumpRoutes false
par SmartHomeNetwork.configurator dumpConfig "\"\""
par SmartHomeNetwork.scenarioManager typename "\"inet.common.scenario.ScenarioManager\""
par SmartHomeNetwork.scenarioManager script "<script/> at content:1"
par SmartHomeNetwork.accessPoint.radioIn[0].channel typename "\"ned.IdealChannel\""
par SmartHomeNetwork.accessPoint.interfaceTable typename "\"inet.networklayer.common.InterfaceTable\""
par SmartHomeNetwork.accessPoint.interfaceTable displayAddresses false
par SmartHomeNetwork.accessPoint.macTable typename "\"inet.linklayer.ethernet.common.MacForwardingTable\""
par SmartHomeNetwork.accessPoint.macTable agingTime 120s
attr unit s
par SmartHomeNetwork.accessPoint.macTable forwardingTable []
attr mutable ""
par SmartHomeNetwork.accessPoint.macTable forwardingTableFile "\"\""
par SmartHomeNetwork.accessPoint.macTable interfaceTableModule "\"SmartHomeNetwork.accessPoint.interfaceTable\""
par SmartHomeNetwork.accessPoint.macTable displayStringTextFormat "\"addr: %a\\nvlan: %v\""
par SmartHomeNetwork.accessPoint.mobility typename "\"inet.mobility.static.StationaryMobility\""
par SmartHomeNetwork.accessPoint.mobility subjectModule "\"^\""
par SmartHomeNetwork.accessPoint.mobility coordinateSystemModule "\"\""
par SmartHomeNetwork.accessPoint.mobility displayStringTextFormat "\"p: %p\\nv: %v\""
attr mutable ""
par SmartHomeNetwork.accessPoint.mobility updateDisplayString true
par SmartHomeNetwork.accessPoint.mobility constraintAreaMinX "-inf m"
attr unit m
par SmartHomeNetwork.accessPoint.mobility constraintAreaMinY "-inf m"
attr unit m
par SmartHomeNetwork.accessPoint.mobility constraintAreaMinZ "-inf m"
attr unit m
par SmartHomeNetwork.accessPoint.mobility constraintAreaMaxX "inf m"
attr unit m
par SmartHomeNetwork.accessPoint.mobility constraintAreaMaxY "inf m"
attr unit m
par SmartHomeNetwork.accessPoint.mobility constraintAreaMaxZ "inf m"
attr unit m
par SmartHomeNetwork.accessPoint.mobility initialX "nan m"
attr unit m
par SmartHomeNetwork.accessPoint.mobility initialY "nan m"
attr unit m
par SmartHomeNetwork.accessPoint.mobility initialZ 1.7m
attr unit m
par SmartHomeNetwork.accessPoint.mobility initialLatitude "nan deg"
attr unit deg
par SmartHomeNetwork.accessPoint.mobility initialLongitude "nan deg"
attr unit deg
par SmartHomeNetwork.accessPoint.mobility initialAltitude 0m
attr unit m
par SmartHomeNetwork.accessPoint.mobility initialHeading 0deg
attr unit deg
par SmartHomeNetwork.accessPoint.mobility initialElevation 0deg
attr unit deg
par SmartHomeNetwork.accessPoint.mobility initialBank 0deg
attr unit deg
par SmartHomeNetwork.accessPoint.mobility initFromDisplayString true
par SmartHomeNetwork.accessPoint.mobility updateFromDisplayString true
par SmartHomeNetwork.accessPoint.li typename "\"inet.common.MessageDispatcher\""
par SmartHomeNetwork.accessPoint.li displayStringTextFormat "\"processed %p pk (%l)\""
par SmartHomeNetwork.accessPoint.li forwardServiceRegistration true
par SmartHomeNetwork.accessPoint.li forwardProtocolRegistration true
par SmartHomeNetwork.accessPoint.wlan[0].radioIn.channel typename "\"ned.IdealChannel\""
par SmartHomeNetwork.accessPoint.wlan[0].llc.upperLayerOut.channel typename "\"ned.IdealChannel\""
par SmartHomeNetwork.accessPoint.wlan[0].upperLayerIn.channel typename "\"ned.IdealChannel\""
par SmartHomeNetwork.accessPoint.wlan[0].mib typename "\"inet.linklayer.ieee80211.mib.Ieee80211Mib\""
par SmartHomeNetwork.accessPoint.wlan[0].llc typename "\"inet.linklayer.ieee80211.portal.Ieee80211Portal\""
par SmartHomeNetwork.accessPoint.wlan[0].llc fcsMode "\"declared\""
attr enum declared,computed
par SmartHomeNetwork.accessPoint.wlan[0].mgmt typename "\"inet.linklayer.ieee80211.mgmt.Ieee80211MgmtAp\""
par SmartHomeNetwork.accessPoint.wlan[0].mgmt ssid "\"SSID\""
par SmartHomeNetwork.accessPoint.wlan[0].mgmt beaconInterval 0.1s
attr unit s
par SmartHomeNetwork.accessPoint.wlan[0].mgmt numAuthSteps 4
par SmartHomeNetwork.accessPoint.wlan[0].mgmt interfaceTableModule "\"SmartHomeNetwork.accessPoint.interfaceTable\""
par SmartHomeNetwork.accessPoint.wlan[0].mgmt radioModule "\"^.radio\""
par SmartHomeNetwork.accessPoint.wlan[0].mgmt mibModule "\"SmartHomeNetwork.accessPoint.wlan[0].mib\""
par SmartHomeNetwork.accessPoint.wlan[0].mgmt macModule "\"SmartHomeNetwork.accessPoint.wlan[0].mac\""
par SmartHomeNetwork.accessPoint.wlan[0].mac.dcf.channelAccess.pendingQueue typename "\"inet.linklayer.ieee80211.mac.queue.PendingQueue\""
par SmartHomeNetwork.accessPoint.wlan[0].mac.dcf.channelAccess.pendingQueue displayStringTextFormat "\"contains %p pk (%l) pushed %u\\npulled %o removed %r dropped %d\""
par SmartHomeNetwork.accessPoint.wlan[0].mac.dcf.channelAccess.pendingQueue packetCapacity 100
par SmartHomeNetwork.accessPoint.wlan[0].mac.dcf.channelAccess.pendingQueue dataCapacity -1b
attr unit b
par SmartHomeNetwork.accessPoint.wlan[0].mac.dcf.channelAccess.pendingQueue dropperClass "\"inet::queueing::PacketAtCollectionEndDropper\""
par SmartHomeNetwork.accessPoint.wlan[0].mac.dcf.channelAccess.pendingQueue comparatorClass "\"inet::ieee80211::MgmtOverDataComparator\""
par SmartHomeNetwork.accessPoint.wlan[0].mac.dcf.channelAccess.pendingQueue bufferModule "\"\""
scalar SmartHomeNetwork.accessPoint.wlan[0].mac.dcf.channelAccess.pendingQueue queueLength:last 0
attr autoWarmupFilter false
attr interpolationmode sample-hold
attr recordingmode last
attr source "warmup(atomic(constant0(packetPushEnded) + count(packetPushStarted) - count(packetPulled) - count(packetRemoved) - count(packetDropped)))"
attr title "queue length, last"
attr unit pk
scalar SmartHomeNetwork.accessPoint.wlan[0].mac.dcf.channelAccess.pendingQueue queueLength:max 1
attr autoWarmupFilter false
attr interpolationmode sample-hold
attr recordingmode max
attr source "warmup(atomic(constant0(packetPushEnded) + count(packetPushStarted) - count(packetPulled) - count(packetRemoved) - count(packetDropped)))"
attr title "queue length, max"
attr unit pk
scalar SmartHomeNetwork.accessPoint.wlan[0].mac.dcf.channelAccess.pendingQueue queueLength:timeavg 0.00014753333333333
attr autoWarmupFilter false
attr interpolationmode sample-hold
attr recordingmode timeavg
attr source "warmup(atomic(constant0(packetPushEnded) + count(packetPushStarted) - count(packetPulled) - count(packetRemoved) - count(packetDropped)))"
attr title "queue length, timeavg"
attr unit pk
scalar SmartHomeNetwork.accessPoint.wlan[0].mac.dcf.channelAccess.pendingQueue queueBitLength:last 0
attr autoWarmupFilter false
attr interpolationmode sample-hold
attr recordingmode last
attr source "warmup(atomic(constant0(packetPushEnded) + sum(packetLength(packetPushStarted)) - sum(packetLength(packetPulled)) - sum(packetLength(packetRemoved)) - sum(packetLength(packetDropped))))"
attr title "queue bit length, last"
attr unit b
scalar SmartHomeNetwork.accessPoint.wlan[0].mac.dcf.channelAccess.pendingQueue queueBitLength:max 384
attr autoWarmupFilter false
attr interpolationmode sample-hold
attr recordingmode max
attr source "warmup(atomic(constant0(packetPushEnded) + sum(packetLength(packetPushStarted)) - sum(packetLength(packetPulled)) - sum(packetLength(packetRemoved)) - sum(packetLength(packetDropped))))"
attr title "queue bit length, max"
attr unit b
scalar SmartHomeNetwork.accessPoint.wlan[0].mac.dcf.channelAccess.pendingQueue queueBitLength:timeavg 0.044503466666667
attr autoWarmupFilter false
attr interpolationmode sample-hold
attr recordingmode timeavg
attr source "warmup(atomic(constant0(packetPushEnded) + sum(packetLength(packetPushStarted)) - sum(packetLength(packetPulled)) - sum(packetLength(packetRemoved)) - sum(packetLength(packetDropped))))"
attr title "queue bit length, timeavg"
attr unit b
statistic SmartHomeNetwork.accessPoint.wlan[0].mac.dcf.channelAccess.pendingQueue queueingTime:histogram
field count 624
field mean 1.4185897435897e-05
field stddev 8.0254755247295e-05
field min 0
field max 0.000694
field sum 0.008852
field sqrsum 4.138208e-06
attr interpolationmode none
attr recordingmode histogram
attr source queueingTime(packetPulled)
attr title "queueing times"
attr unit s
bin	-inf	0
bin	0	600
bin	1e-05	0
bin	2e-05	0
bin	3e-05	0
bin	4e-05	0
bin	5e-05	0
bin	6e-05	0
bin	7e-05	0
bin	8e-05	0
bin	9e-05	2
bin	0.0001	0
bin	0.00011	1
bin	0.00012	0
bin	0.00013	1
bin	0.00014	1
bin	0.00015	0
bin	0.00016	0
bin	0.00017	0
bin	0.00018	0
bin	0.00019	1
bin	0.0002	0
bin	0.00021	0
bin	0.00022	0
bin	0.00023	2
bin	0.00024	0
bin	0.00025	1
bin	0.00026	0
bin	0.00027	0
bin	0.00028	0
bin	0.00029	1
bin	0.0003	0
bin	0.00031	1
bin	0.00032	1
bin	0.00033	0
bin	0.00034	0
bin	0.00035	0
bin	0.00036	1
bin	0.00037	0
bin	0.00038	0
bin	0.00039	1
bin	0.0004	0
bin	0.00041	0
bin	0.00042	0
bin	0.00043	1
bin	0.00044	0
bin	0.00045	1
bin	0.00046	0
bin	0.00047	1
bin	0.00048	0
bin	0.00049	0
bin	0.0005	0
bin	0.00051	0
bin	0.00052	0
bin	0.00053	0
bin	0.00054	0
bin	0.00055	2
bin	0.00056	0
bin	0.00057	1
bin	0.00058	0
bin	0.00059	1
bin	0.0006	0
bin	0.00061	0
bin	0.00062	0
bin	0.00063	0
bin	0.00064	1
bin	0.00065	0
bin	0.00066	0
bin	0.00067	1
bin	0.00068	0
bin	0.00069	1
bin	0.0007	0
bin	0.00071	0
bin	0.00072	0
bin	0.00073	0
bin	0.00074	0
bin	0.00075	0
bin	0.00076	0
bin	0.00077	0
bin	0.00078	0
bin	0.00079	0
bin	0.0008	0
bin	0.00081	0
bin	0.00082	0
bin	0.00083	0
bin	0.00084	0
bin	0.00085	0
bin	0.00086	0
bin	0.00087	0
scalar SmartHomeNetwork.accessPoint.wlan[0].mac.dcf.channelAccess.pendingQueue outgoingPackets:count 624
attr recordingmode count
attr source packetPulled
attr title "outgoing packets, count"
attr unit pk
scalar SmartHomeNetwork.accessPoint.wlan[0].mac.dcf.channelAccess.pendingQueue outgoingPacketLengths:sum 237696
attr interpolationmode none
attr recordingmode sum
attr source packetLength(packetPulled)
attr title "outgoing packet lengths, sum"
attr unit b
statistic SmartHomeNetwork.accessPoint.wlan[0].mac.dcf.channelAccess.pendingQueue outgoingPacketLengths:histogram
field count 624
field mean 380.92307692308
field stddev 17.913485136815
field min 272
field max 384
field sum 237696
field sqrsum 90743808
attr interpolationmode none
attr recordingmode histogram
attr source packetLength(packetPulled)
attr title "outgoing packet lengths"
attr unit b
bin	-inf	0
bin	244	0
bin	246	0
bin	248	0
bin	250	0
bin	252	0
bin	254	0
bin	256	0
bin	258	0
bin	260	0
bin	262	0
bin	264	0
bin	266	0
bin	268	0
bin	270	0
bin	272	12
bin	274	0
bin	276	0
bin	278	0
bin	280	0
bin	282	0
bin	284	0
bin	286	0
bin	288	6
bin	290	0
bin	292	0
bin	294	0
bin	296	0
bin	298	0
bin	300	0
bin	302	0
bin	304	0
bin	306	0
bin	308	0
bin	310	0
bin	312	0
bin	314	0
bin	316	0
bin	318	0
bin	320	0
bin	322	0
bin	324	0
bin	326	0
bin	328	0
bin	330	0
bin	332	0
bin	334	0
bin	336	0
bin	338	0
bin	340	0
bin	342	0
bin	344	0
bin	346	0
bin	348	0
bin	350	0
bin	352	0
bin	354	0
bin	356	0
bin	358	0
bin	360	0
bin	362	0
bin	364	0
bin	366	0
bin	368	0
bin	370	0
bin	372	0
bin	374	0
bin	376	0
bin	378	0
bin	380	0
bin	382	0
bin	384	606
bin	386	0
bin	388	0
bin	390	0
bin	392	0
bin	394	0
bin	396	0
bin	398	0
bin	400	0
bin	402	0
bin	404	0
bin	406	0
bin	408	0
bin	410	0
bin	412	0
statistic SmartHomeNetwork.accessPoint.wlan[0].mac.dcf.channelAccess.pendingQueue flowQueueingTime:histogram
field count 0
field mean nan
field stddev nan
field min nan
field max nan
field sum 0
field sqrsum 0
attr interpolationmode none
attr recordingmode histogram
attr source queueingTime(demuxFlow(packetPulled))
attr title "flow queueing times"
attr unit s
bin	-inf	0
bin	0	0
bin	1	0
scalar SmartHomeNetwork.accessPoint.wlan[0].mac.dcf.channelAccess.pendingQueue incomingPackets:count 624
attr recordingmode count
attr source packetPushStarted
attr title "incoming packets, count"
attr unit pk
scalar SmartHomeNetwork.accessPoint.wlan[0].mac.dcf.channelAccess.pendingQueue incomingPacketLengths:sum 237696
attr interpolationmode none
attr recordingmode sum
attr source packetLength(packetPushStarted)
attr title "incoming packet lengths, sum"
attr unit b
statistic SmartHomeNetwork.accessPoint.wlan[0].mac.dcf.channelAccess.pendingQueue incomingPacketLengths:histogram
field count 624
field mean 380.92307692308
field stddev 17.913485136815
field min 272
field max 384
field sum 237696
field sqrsum 90743808
attr interpolationmode none
attr recordingmode histogram
attr source packetLength(packetPushStarted)
attr title "incoming packet lengths"
attr unit b
bin	-inf	0
bin	244	0
bin	246	0
bin	248	0
bin	250	0
bin	252	0
bin	254	0
bin	256	0
bin	258	0
bin	260	0
bin	262	0
bin	264	0
bin	266	0
bin	268	0
bin	270	0
bin	272	12
bin	274	0
bin	276	0
bin	278	0
bin	280	0
bin	282	0
bin	284	0
bin	286	0
bin	288	6
bin	290	0
bin	292	0
bin	294	0
bin	296	0
bin	298	0
bin	300	0
bin	302	0
bin	304	0
bin	306	0
bin	308	0
bin	310	0
bin	312	0
bin	314	0
bin	316	0
bin	318	0
bin	320	0
bin	322	0
bin	324	0
bin	326	0
bin	328	0
bin	330	0
bin	332	0
bin	334	0
bin	336	0
bin	338	0
bin	340	0
bin	342	0
bin	344	0
bin	346	0
bin	348	0
bin	350	0
bin	352	0
bin	354	0
bin	356	0
bin	358	0
bin	360	0
bin	362	0
bin	364	0
bin	366	0
bin	368	0
bin	370	0
bin	372	0
bin	374	0
bin	376	0
bin	378	0
bin	380	0
bin	382	0
bin	384	606
bin	386	0
bin	388	0
bin	390	0
bin	392	0
bin	394	0
bin	396	0
bin	398	0
bin	400	0
bin	402	0
bin	404	0
bin	406	0
bin	408	0
bin	410	0
bin	412	0
scalar SmartHomeNetwork.accessPoint.wlan[0].mac.dcf.channelAccess.pendingQueue droppedPacketsQueueOverflow:count 0
attr interpolationmode none
attr recordingmode count
attr source packetDropReasonIsQueueOverflow(packetDropped)
attr title "dropped packets: queue overflow, count"
attr unit pk
scalar SmartHomeNetwork.accessPoint.wlan[0].mac.dcf.channelAccess.pendingQueue droppedPacketLengthsQueueOverflow:sum 0
attr interpolationmode none
attr recordingmode sum
attr source packetLength(packetDropReasonIsQueueOverflow(packetDropped))
attr title "dropped packet lengths: queue overflow, sum"
attr unit b
par SmartHomeNetwork.accessPoint.wlan[0].mac.dcf.channelAccess.inProgressFrames typename "\"inet.linklayer.ieee80211.mac.queue.InProgressFrames\""
par SmartHomeNetwork.accessPoint.wlan[0].mac.dcf.channelAccess.inProgressFrames pendingQueueModule "\"^.pendingQueue\""
par SmartHomeNetwork.accessPoint.wlan[0].mac.dcf.channelAccess.inProgressFrames originatorMacDataServiceModule "\"^.^.originatorMacDataService\""
par SmartHomeNetwork.accessPoint.wlan[0].mac.dcf.channelAccess.inProgressFrames ackHandlerModule "\"^.^.ackHandler\""
statistic SmartHomeNetwork.accessPoint.wlan[0].mac.dcf.channelAccess.inProgressFrames queueingTime:histogram
field count 624
field mean 4.761497825641e-05
field stddev 8.0886487651566e-06
field min 4.6e-05
field max 9.1377584e-05
field sum 0.029711746432
field sqrsum 1.4554847071208e-06
attr interpolationmode none
attr recordingmode histogram
attr source queueingTime(packetDequeued)
attr title "queueing times"
bin	-inf	0
bin	3.4e-05	0
bin	3.5e-05	0
bin	3.6e-05	0
bin	3.7e-05	0
bin	3.8e-05	0
bin	3.9e-05	0
bin	4e-05	0
bin	4.1e-05	0
bin	4.2e-05	0
bin	4.3e-05	0
bin	4.4e-05	0
bin	4.5e-05	600
bin	4.6e-05	0
bin	4.7e-05	0
bin	4.8e-05	0
bin	4.9e-05	0
bin	5e-05	0
bin	5.1e-05	0
bin	5.2e-05	0
bin	5.3e-05	0
bin	5.4e-05	0
bin	5.5e-05	0
bin	5.6e-05	0
bin	5.7e-05	0
bin	5.8e-05	0
bin	5.9e-05	0
bin	6e-05	0
bin	6.1e-05	0
bin	6.2e-05	0
bin	6.3e-05	0
bin	6.4e-05	0
bin	6.5e-05	0
bin	6.6e-05	0
bin	6.7e-05	0
bin	6.8e-05	0
bin	6.9e-05	0
bin	7e-05	0
bin	7.1e-05	0
bin	7.2e-05	0
bin	7.3e-05	0
bin	7.4e-05	0
bin	7.5e-05	0
bin	7.6e-05	0
bin	7.7e-05	0
bin	7.8e-05	0
bin	7.9e-05	0
bin	8e-05	0
bin	8.1e-05	0
bin	8.2e-05	0
bin	8.3e-05	0
bin	8.4e-05	0
bin	8.5e-05	0
bin	8.6e-05	12
bin	8.7e-05	6
bin	8.8e-05	0
bin	8.9e-05	0
bin	9e-05	4
bin	9.1e-05	2
bin	9.2e-05	0
bin	9.3e-05	0
bin	9.4e-05	0
bin	9.5e-05	0
bin	9.6e-05	0
bin	9.7e-05	0
bin	9.8e-05	0
bin	9.9e-05	0
bin	0.0001	0
bin	0.000101	0
bin	0.000102	0
bin	0.000103	0
scalar SmartHomeNetwork.accessPoint.wlan[0].mac.dcf.channelAccess.inProgressFrames queueLength:max 1
attr autoWarmupFilter false
attr interpolationmode sample-hold
attr recordingmode max
attr source "warmup(count(packetEnqueued) - count(packetDequeued))"
attr title "queue length, max"
scalar SmartHomeNetwork.accessPoint.wlan[0].mac.dcf.channelAccess.inProgressFrames queueLength:timeavg 0.00049519577386667
attr autoWarmupFilter false
attr interpolationmode sample-hold
attr recordingmode timeavg
attr source "warmup(count(packetEnqueued) - count(packetDequeued))"
attr title "queue length, timeavg"
par SmartHomeNetwork.accessPoint.wlan[0].mac.dcf.channelAccess.contention typename "\"inet.linklayer.ieee80211.mac.contention.Contention\""
par SmartHomeNetwork.accessPoint.wlan[0].mac.dcf.channelAccess.contention initialChannelBusy true
par SmartHomeNetwork.accessPoint.wlan[0].mac.dcf.channelAccess.contention backoffOptimization true
scalar SmartHomeNetwork.accessPoint.wlan[0].mac.dcf.channelAccess.contention stateChanged:count 5162
attr enum IDLE,DEFER,IFS_AND_BACKOFF
attr interpolationmode none
attr recordingmode count
attr title "contention state changed, count"
attr type enum
scalar SmartHomeNetwork.accessPoint.wlan[0].mac.dcf.channelAccess.contention channelAccessGranted:count 624
attr recordingmode count
attr title "channel access granted, count"
par SmartHomeNetwork.accessPoint.wlan[0].mac.dcf.channelAccess typename "\"inet.linklayer.ieee80211.mac.channelaccess.Dcaf\""
par SmartHomeNetwork.accessPoint.wlan[0].mac.dcf.channelAccess difsn -1
par SmartHomeNetwork.accessPoint.wlan[0].mac.dcf.channelAccess cwMin -1
par SmartHomeNetwork.accessPoint.wlan[0].mac.dcf.channelAccess cwMax -1
par SmartHomeNetwork.accessPoint.wlan[0].mac.dcf.channelAccess rxModule "\"^.^.rx\""
scalar SmartHomeNetwork.accessPoint.wlan[0].mac.dcf.channelAccess channelOwnershipChanged:count 1248
attr interpolationmode sample-hold
attr recordingmode count
attr title "channel ownership, count"
par SmartHomeNetwork.accessPoint.wlan[0].mac.dcf.originatorMacDataService.fragmentationPolicy typename "\"inet.linklayer.ieee80211.mac.fragmentation.BasicFragmentationPolicy\""
par SmartHomeNetwork.accessPoint.wlan[0].mac.dcf.originatorMacDataService.fragmentationPolicy fragmentationThreshold 1500B
attr unit B
par SmartHomeNetwork.accessPoint.wlan[0].mac.dcf.originatorMacDataService typename "\"inet.linklayer.ieee80211.mac.originator.OriginatorMacDataService\""
scalar SmartHomeNetwork.accessPoint.wlan[0].mac.dcf.originatorMacDataService packetAggregated:count 0
attr recordingmode count
attr title "packets aggregated, count"
scalar SmartHomeNetwork.accessPoint.wlan[0].mac.dcf.originatorMacDataService packetFragmented:count 0
attr recordingmode count
attr title "packets fragmented, count"
par SmartHomeNetwork.accessPoint.wlan[0].mac.dcf.recipientMacDataService typename "\"inet.linklayer.ieee80211.mac.recipient.RecipientMacDataService\""
scalar SmartHomeNetwork.accessPoint.wlan[0].mac.dcf.recipientMacDataService packetDropDuplicateDetected:count 0
attr interpolationmode none
attr recordingmode count
attr source packetDropReasonIsDuplicateDetected(packetDropped)
attr title "packet drops: duplicate detected, count"
scalar SmartHomeNetwork.accessPoint.wlan[0].mac.dcf.recipientMacDataService packetDropDuplicateDetected:sum(packetBytes) 0
attr interpolationmode none
attr recordingmode sum(packetBytes)
attr source packetDropReasonIsDuplicateDetected(packetDropped)
attr title "packet drops: duplicate detected, sum(packetBytes)"
scalar SmartHomeNetwork.accessPoint.wlan[0].mac.dcf.recipientMacDataService packetDeaggregated:count 0
attr recordingmode count
attr title "packets deaggregated, count"
scalar SmartHomeNetwork.accessPoint.wlan[0].mac.dcf.recipientMacDataService packetDefragmented:count 24
attr recordingmode count
attr title "packets defragmented, count"
par SmartHomeNetwork.accessPoint.wlan[0].mac.dcf.rateSelection typename "\"inet.linklayer.ieee80211.mac.rateselection.RateSelection\""
par SmartHomeNetwork.accessPoint.wlan[0].mac.dcf.rateSelection rateControlModule "\"^.rateControl\""
par SmartHomeNetwork.accessPoint.wlan[0].mac.dcf.rateSelection multicastFrameBitrate -1bps
attr unit bps
par SmartHomeNetwork.accessPoint.wlan[0].mac.dcf.rateSelection responseAckFrameBitrate -1bps
attr unit bps
par SmartHomeNetwork.accessPoint.wlan[0].mac.dcf.rateSelection responseCtsFrameBitrate -1bps
attr unit bps
par SmartHomeNetwork.accessPoint.wlan[0].mac.dcf.rateSelection dataFrameBitrate -1bps
attr unit bps
par SmartHomeNetwork.accessPoint.wlan[0].mac.dcf.rateSelection dataFrameBandwidth "nan Hz"
attr unit Hz
par SmartHomeNetwork.accessPoint.wlan[0].mac.dcf.rateSelection dataFrameNumSpatialStreams -1
par SmartHomeNetwork.accessPoint.wlan[0].mac.dcf.rateSelection mgmtFrameBitrate -1bps
attr unit bps
par SmartHomeNetwork.accessPoint.wlan[0].mac.dcf.rateSelection controlFrameBitrate -1bps
attr unit bps
[...]
bin	0.16	0
bin	0.18	0
bin	0.2	0
bin	0.22	0
bin	0.24	0
bin	0.26	0
bin	0.28	0
bin	0.3	0
bin	0.32	0
bin	0.34	0
bin	0.36	0
bin	0.38	0
bin	0.4	0
bin	0.42	0
bin	0.44	0
bin	0.46	0
bin	0.48	0
bin	0.5	0
par SmartHomeNetwork.homeAssistant.wlan[0] typename "\"inet.linklayer.ieee80211.Ieee80211Interface\""
par SmartHomeNetwork.homeAssistant.wlan[0] displayStringTextFormat "\"%a (%i)\\n%m\""
par SmartHomeNetwork.homeAssistant.wlan[0] recordPcap false
par SmartHomeNetwork.homeAssistant.wlan[0] numPcapRecorders 0
par SmartHomeNetwork.homeAssistant.wlan[0] interfaceTableModule "\"SmartHomeNetwork.homeAssistant.interfaceTable\""
par SmartHomeNetwork.homeAssistant.wlan[0] energySourceModule "\"\""
par SmartHomeNetwork.homeAssistant.wlan[0] opMode "\"g(mixed)\""
attr enum a,b,g(erp),g(mixed),n(mixed-2.4Ghz),p,ac
par SmartHomeNetwork.homeAssistant.wlan[0] address "\"0A-AA-00-00-00-07\""
attr mutable ""
par SmartHomeNetwork.homeAssistant.wlan[0] protocol "\"\""
par SmartHomeNetwork.homeAssistant.wlan[0] bitrate -1bps
attr unit bps
scalar SmartHomeNetwork.homeAssistant.wlan[0] packetDropInterfaceDown:count 0
attr interpolationmode none
attr recordingmode count
attr source packetDropReasonIsInterfaceDown(packetDropped)
attr title "packet drops: interface down, count"
scalar SmartHomeNetwork.homeAssistant.wlan[0] packetDropInterfaceDown:sum(packetBytes) 0
attr interpolationmode none
attr recordingmode sum(packetBytes)
attr source packetDropReasonIsInterfaceDown(packetDropped)
attr title "packet drops: interface down, sum(packetBytes)"
scalar SmartHomeNetwork.homeAssistant.wlan[0] packetDropNoCarrier:count 0
attr interpolationmode none
attr recordingmode count
attr source packetDropReasonIsNoCarrier(packetDropped)
attr title "packet drops: no carrier, count"
scalar SmartHomeNetwork.homeAssistant.wlan[0] packetDropNoCarrier:sum(packetBytes) 0
attr interpolationmode none
attr recordingmode sum(packetBytes)
attr source packetDropReasonIsNoCarrier(packetDropped)
attr title "packet drops: no carrier, sum(packetBytes)"
par SmartHomeNetwork.homeAssistant.ipv4.transportIn.channel typename "\"ned.IdealChannel\""
par SmartHomeNetwork.homeAssistant.ipv4.up.out[0].channel typename "\"ned.IdealChannel\""
par SmartHomeNetwork.homeAssistant.ipv4.lp.out[2].channel typename "\"ned.IdealChannel\""
par SmartHomeNetwork.homeAssistant.ipv4.ifIn.channel typename "\"ned.IdealChannel\""
par SmartHomeNetwork.homeAssistant.ipv4.configurator typename "\"inet.networklayer.configurator.ipv4.Ipv4NodeConfigurator\""
par SmartHomeNetwork.homeAssistant.ipv4.configurator interfaceTableModule "\"SmartHomeNetwork.homeAssistant.interfaceTable\""
par SmartHomeNetwork.homeAssistant.ipv4.configurator routingTableModule "\"SmartHomeNetwork.homeAssistant.ipv4.routingTable\""
par SmartHomeNetwork.homeAssistant.ipv4.configurator networkConfiguratorModule "\"configurator\""
par SmartHomeNetwork.homeAssistant.ipv4.configurator configureRoutingTable true
par SmartHomeNetwork.homeAssistant.ipv4.routingTable typename "\"inet.networklayer.ipv4.Ipv4RoutingTable\""
par SmartHomeNetwork.homeAssistant.ipv4.routingTable interfaceTableModule "\"SmartHomeNetwork.homeAssistant.interfaceTable\""
par SmartHomeNetwork.homeAssistant.ipv4.routingTable routerId "\"auto\""
par SmartHomeNetwork.homeAssistant.ipv4.routingTable netmaskRoutes "\"*\""
par SmartHomeNetwork.homeAssistant.ipv4.routingTable forwarding false
par SmartHomeNetwork.homeAssistant.ipv4.routingTable multicastForwarding false
par SmartHomeNetwork.homeAssistant.ipv4.routingTable useAdminDist false
par SmartHomeNetwork.homeAssistant.ipv4.routingTable routingFile "\"\""
par SmartHomeNetwork.homeAssistant.ipv4.natTable typename "\"inet.networklayer.ipv4.Ipv4NatTable\""
par SmartHomeNetwork.homeAssistant.ipv4.natTable networkProtocolModule "\"^.ip\""
par SmartHomeNetwork.homeAssistant.ipv4.natTable config "<config/> at content:1"
par SmartHomeNetwork.homeAssistant.ipv4.up typename "\"inet.common.MessageDispatcher\""
par SmartHomeNetwork.homeAssistant.ipv4.up displayStringTextFormat "\"processed %p pk (%l)\""
par SmartHomeNetwork.homeAssistant.ipv4.up forwardServiceRegistration true
par SmartHomeNetwork.homeAssistant.ipv4.up forwardProtocolRegistration true
par SmartHomeNetwork.homeAssistant.ipv4.igmp typename "\"inet.networklayer.ipv4.Igmpv2\""
par SmartHomeNetwork.homeAssistant.ipv4.igmp interfaceTableModule "\"SmartHomeNetwork.homeAssistant.interfaceTable\""
par SmartHomeNetwork.homeAssistant.ipv4.igmp routingTableModule "\"SmartHomeNetwork.homeAssistant.ipv4.routingTable\""
par SmartHomeNetwork.homeAssistant.ipv4.igmp crcMode "\"declared\""
attr enum declared,computed
par SmartHomeNetwork.homeAssistant.ipv4.igmp enabled true
par SmartHomeNetwork.homeAssistant.ipv4.igmp robustnessVariable 2
par SmartHomeNetwork.homeAssistant.ipv4.igmp queryInterval 125s
attr unit s
par SmartHomeNetwork.homeAssistant.ipv4.igmp queryResponseInterval 10s
attr unit s
par SmartHomeNetwork.homeAssistant.ipv4.igmp groupMembershipInterval 260s
attr unit s
par SmartHomeNetwork.homeAssistant.ipv4.igmp otherQuerierPresentInterval 255s
attr unit s
par SmartHomeNetwork.homeAssistant.ipv4.igmp startupQueryInterval 31.25s
attr unit s
par SmartHomeNetwork.homeAssistant.ipv4.igmp startupQueryCount 2
par SmartHomeNetwork.homeAssistant.ipv4.igmp lastMemberQueryInterval 1s
attr unit s
par SmartHomeNetwork.homeAssistant.ipv4.igmp lastMemberQueryCount 2
par SmartHomeNetwork.homeAssistant.ipv4.igmp unsolicitedReportInterval 10s
attr unit s
par SmartHomeNetwork.homeAssistant.ipv4.icmp typename "\"inet.networklayer.ipv4.Icmp\""
par SmartHomeNetwork.homeAssistant.ipv4.icmp interfaceTableModule "\"SmartHomeNetwork.homeAssistant.interfaceTable\""
par SmartHomeNetwork.homeAssistant.ipv4.icmp routingTableModule "\"SmartHomeNetwork.homeAssistant.ipv4.routingTable\""
par SmartHomeNetwork.homeAssistant.ipv4.icmp crcMode "\"declared\""
attr enum declared,computed
attr mutable ""
par SmartHomeNetwork.homeAssistant.ipv4.icmp quoteLength 8B
attr mutable ""
attr unit B
par SmartHomeNetwork.homeAssistant.ipv4.mp typename "\"inet.common.MessageDispatcher\""
par SmartHomeNetwork.homeAssistant.ipv4.mp displayStringTextFormat "\"processed %p pk (%l)\""
par SmartHomeNetwork.homeAssistant.ipv4.mp forwardServiceRegistration true
par SmartHomeNetwork.homeAssistant.ipv4.mp forwardProtocolRegistration true
par SmartHomeNetwork.homeAssistant.ipv4.ip typename "\"inet.networklayer.ipv4.Ipv4\""
par SmartHomeNetwork.homeAssistant.ipv4.ip interfaceTableModule "\"SmartHomeNetwork.homeAssistant.interfaceTable\""
par SmartHomeNetwork.homeAssistant.ipv4.ip routingTableModule "\"SmartHomeNetwork.homeAssistant.ipv4.routingTable\""
par SmartHomeNetwork.homeAssistant.ipv4.ip arpModule "\"SmartHomeNetwork.homeAssistant.ipv4.arp\""
par SmartHomeNetwork.homeAssistant.ipv4.ip icmpModule "\"SmartHomeNetwork.homeAssistant.ipv4.icmp\""
par SmartHomeNetwork.homeAssistant.ipv4.ip crcMode "\"declared\""
attr enum declared,computed
par SmartHomeNetwork.homeAssistant.ipv4.ip timeToLive 32
par SmartHomeNetwork.homeAssistant.ipv4.ip multicastTimeToLive 32
par SmartHomeNetwork.homeAssistant.ipv4.ip fragmentTimeout 60s
attr unit s
par SmartHomeNetwork.homeAssistant.ipv4.ip limitedBroadcast false
par SmartHomeNetwork.homeAssistant.ipv4.ip directBroadcastInterfaces "\"\""
scalar SmartHomeNetwork.homeAssistant.ipv4.ip packetDropAddressResolutionFailed:count 0
attr interpolationmode none
attr recordingmode count
attr source packetDropReasonIsAddressResolutionFailed(packetDropped)
attr title "packet drop: address resolution failed, count"
scalar SmartHomeNetwork.homeAssistant.ipv4.ip packetDropAddressResolutionFailed:sum(packetBytes) 0
attr interpolationmode none
attr recordingmode sum(packetBytes)
attr source packetDropReasonIsAddressResolutionFailed(packetDropped)
attr title "packet drop: address resolution failed, sum(packetBytes)"
scalar SmartHomeNetwork.homeAssistant.ipv4.ip packetDropHopLimitReached:count 0
attr interpolationmode none
attr recordingmode count
attr source packetDropReasonIsHopLimitReached(packetDropped)
attr title "packet drop: hop limit reached, count"
scalar SmartHomeNetwork.homeAssistant.ipv4.ip packetDropHopLimitReached:sum(packetBytes) 0
attr interpolationmode none
attr recordingmode sum(packetBytes)
attr source packetDropReasonIsHopLimitReached(packetDropped)
attr title "packet drop: hop limit reached, sum(packetBytes)"
scalar SmartHomeNetwork.homeAssistant.ipv4.ip packetDropForwardingDisabled:count 0
attr interpolationmode none
attr recordingmode count
attr source packetDropReasonIsForwardingDisabled(packetDropped)
attr title "packet drop: forwarding disabled, count"
scalar SmartHomeNetwork.homeAssistant.ipv4.ip packetDropForwardingDisabled:sum(packetBytes) 0
attr interpolationmode none
attr recordingmode sum(packetBytes)
attr source packetDropReasonIsForwardingDisabled(packetDropped)
attr title "packet drop: forwarding disabled, sum(packetBytes)"
scalar SmartHomeNetwork.homeAssistant.ipv4.ip packetDropNoInterfaceFound:count 0
attr interpolationmode none
attr recordingmode count
attr source packetDropReasonIsNoInterfaceFound(packetDropped)
attr title "packet drop: no interface found, count"
scalar SmartHomeNetwork.homeAssistant.ipv4.ip packetDropNoInterfaceFound:sum(packetBytes) 0
attr interpolationmode none
attr recordingmode sum(packetBytes)
attr source packetDropReasonIsNoInterfaceFound(packetDropped)
attr title "packet drop: no interface found, sum(packetBytes)"
scalar SmartHomeNetwork.homeAssistant.ipv4.ip packetDropNoRouteFound:count 0
attr interpolationmode none
attr recordingmode count
attr source packetDropReasonIsNoRouteFound(packetDropped)
attr title "packet drop: no route found, count"
scalar SmartHomeNetwork.homeAssistant.ipv4.ip packetDropNoRouteFound:sum(packetBytes) 0
attr interpolationmode none
attr recordingmode sum(packetBytes)
attr source packetDropReasonIsNoRouteFound(packetDropped)
attr title "packet drop: no route found, sum(packetBytes)"
scalar SmartHomeNetwork.homeAssistant.ipv4.ip packetDropUndefined:count 0
attr interpolationmode none
attr recordingmode count
attr source packetDropReasonIsUndefined(packetDropped)
attr title "packet drop: undefined, count"
scalar SmartHomeNetwork.homeAssistant.ipv4.ip packetDropUndefined:sum(packetBytes) 0
attr interpolationmode none
attr recordingmode sum(packetBytes)
attr source packetDropReasonIsUndefined(packetDropped)
attr title "packet drop: undefined, sum(packetBytes)"
par SmartHomeNetwork.homeAssistant.ipv4.arp typename "\"inet.networklayer.arp.ipv4.Arp\""
par SmartHomeNetwork.homeAssistant.ipv4.arp interfaceTableModule "\"SmartHomeNetwork.homeAssistant.interfaceTable\""
par SmartHomeNetwork.homeAssistant.ipv4.arp routingTableModule "\"SmartHomeNetwork.homeAssistant.ipv4.routingTable\""
par SmartHomeNetwork.homeAssistant.ipv4.arp retryTimeout 1s
attr unit s
par SmartHomeNetwork.homeAssistant.ipv4.arp retryCount 3
par SmartHomeNetwork.homeAssistant.ipv4.arp cacheTimeout 120s
attr unit s
par SmartHomeNetwork.homeAssistant.ipv4.arp proxyArpInterfaces "\"\""
scalar SmartHomeNetwork.homeAssistant.ipv4.arp arpReplySent:count 0
attr recordingmode count
attr source arpReplySent
attr title "ARP replies sent, count"
scalar SmartHomeNetwork.homeAssistant.ipv4.arp arpReplySent:sum(packetBytes) 0
attr recordingmode sum(packetBytes)
attr source arpReplySent
attr title "ARP replies sent, sum(packetBytes)"
scalar SmartHomeNetwork.homeAssistant.ipv4.arp arpRequestSent:count 0
attr recordingmode count
attr source arpRequestSent
attr title "ARP request sent, count"
scalar SmartHomeNetwork.homeAssistant.ipv4.arp arpRequestSent:sum(packetBytes) 0
attr recordingmode sum(packetBytes)
attr source arpRequestSent
attr title "ARP request sent, sum(packetBytes)"
scalar SmartHomeNetwork.homeAssistant.ipv4.arp arpResolutionFailed:count 0
attr recordingmode count
attr title "ARP failed resolutions, count"
scalar SmartHomeNetwork.homeAssistant.ipv4.arp arpResolutionCompleted:count 0
attr recordingmode count
attr title "ARP completed resolutions, count"
scalar SmartHomeNetwork.homeAssistant.ipv4.arp arpResolutionInitiated:count 0
attr recordingmode count
attr title "ARP initiated resolutions, count"
par SmartHomeNetwork.homeAssistant.ipv4.lp typename "\"inet.common.MessageDispatcher\""
par SmartHomeNetwork.homeAssistant.ipv4.lp displayStringTextFormat "\"processed %p pk (%l)\""
par SmartHomeNetwork.homeAssistant.ipv4.lp forwardServiceRegistration true
par SmartHomeNetwork.homeAssistant.ipv4.lp forwardProtocolRegistration true
par SmartHomeNetwork.homeAssistant.ipv4 typename "\"inet.networklayer.ipv4.Ipv4NetworkLayer\""
par SmartHomeNetwork.homeAssistant.ipv4 forwarding false
par SmartHomeNetwork.homeAssistant.ipv4 multicastForwarding false
par SmartHomeNetwork.homeAssistant.ipv4 interfaceTableModule "\"SmartHomeNetwork.homeAssistant.interfaceTable\""
par SmartHomeNetwork.homeAssistant.ipv4 displayStringTextFormat "\"%i\""
par SmartHomeNetwork.homeAssistant.nl typename "\"inet.common.MessageDispatcher\""
par SmartHomeNetwork.homeAssistant.nl displayStringTextFormat "\"processed %p pk (%l)\""
par SmartHomeNetwork.homeAssistant.nl forwardServiceRegistration true
par SmartHomeNetwork.homeAssistant.nl forwardProtocolRegistration true
par SmartHomeNetwork.homeAssistant.udp typename "\"inet.transportlayer.udp.Udp\""
par SmartHomeNetwork.homeAssistant.udp interfaceTableModule "\"SmartHomeNetwork.homeAssistant.interfaceTable\""
par SmartHomeNetwork.homeAssistant.udp icmpModule "\"^.ipv4.icmp\""
par SmartHomeNetwork.homeAssistant.udp icmpv6Module "\"^.ipv6.icmpv6\""
par SmartHomeNetwork.homeAssistant.udp crcMode "\"declared\""
attr enum disabled,declared,computed
par SmartHomeNetwork.homeAssistant.udp defaultMulticastLoop true
scalar SmartHomeNetwork.homeAssistant.udp packetReceived:count 0
attr interpolationmode none
attr recordingmode count
attr source packetReceived
attr title "packets received, count"
scalar SmartHomeNetwork.homeAssistant.udp packetReceived:sum(packetBytes) 0
attr interpolationmode none
attr recordingmode sum(packetBytes)
attr source packetReceived
attr title "packets received, sum(packetBytes)"
scalar SmartHomeNetwork.homeAssistant.udp packetSent:count 0
attr interpolationmode none
attr recordingmode count
attr source packetSent
attr title "packets sent, count"
scalar SmartHomeNetwork.homeAssistant.udp packetSent:sum(packetBytes) 0
attr interpolationmode none
attr recordingmode sum(packetBytes)
attr source packetSent
attr title "packets sent, sum(packetBytes)"
scalar SmartHomeNetwork.homeAssistant.udp passedUpPk:count 0
attr interpolationmode none
attr recordingmode count
attr source packetSentToUpper
attr title "packets passed up, count"
scalar SmartHomeNetwork.homeAssistant.udp droppedPkWrongPort:count 0
attr interpolationmode none
attr recordingmode count
attr source packetDropReasonIsNoPortFound(packetDropped)
attr title "packets dropped (wrong port), count"
scalar SmartHomeNetwork.homeAssistant.udp droppedPkBadChecksum:count 0
attr interpolationmode none
attr recordingmode count
attr source packetDropReasonIsIncorrectlyReceived(packetDropped)
attr title "packets dropped (checksum error), count"
par SmartHomeNetwork.homeAssistant.tcp typename "\"inet.transportlayer.tcp.Tcp\""
par SmartHomeNetwork.homeAssistant.tcp crcMode "\"declared\""
attr enum declared,computed
par SmartHomeNetwork.homeAssistant.tcp advertisedWindow 7504
par SmartHomeNetwork.homeAssistant.tcp delayedAcksEnabled false
par SmartHomeNetwork.homeAssistant.tcp nagleEnabled true
par SmartHomeNetwork.homeAssistant.tcp limitedTransmitEnabled false
par SmartHomeNetwork.homeAssistant.tcp increasedIWEnabled false
par SmartHomeNetwork.homeAssistant.tcp sackSupport false
par SmartHomeNetwork.homeAssistant.tcp windowScalingSupport false
par SmartHomeNetwork.homeAssistant.tcp windowScalingFactor -1
par SmartHomeNetwork.homeAssistant.tcp timestampSupport false
par SmartHomeNetwork.homeAssistant.tcp mss 536
par SmartHomeNetwork.homeAssistant.tcp msl 120s
attr unit s
par SmartHomeNetwork.homeAssistant.tcp tcpAlgorithmClass "\"TcpReno\""
par SmartHomeNetwork.homeAssistant.tcp useDataNotification false
par SmartHomeNetwork.homeAssistant.tcp dupthresh 3
par SmartHomeNetwork.homeAssistant.tcp initialSsthresh 4294967295
par SmartHomeNetwork.homeAssistant.tcp stopOperationExtraTime 0s
attr unit s
par SmartHomeNetwork.homeAssistant.tcp stopOperationTimeout 2s
attr unit s
par SmartHomeNetwork.homeAssistant.tcp ecnWillingness false
par SmartHomeNetwork.homeAssistant.tcp dctcpGamma 0.0625
par SmartHomeNetwork.homeAssistant.tn typename "\"inet.common.MessageDispatcher\""
par SmartHomeNetwork.homeAssistant.tn displayStringTextFormat "\"processed %p pk (%l)\""
par SmartHomeNetwork.homeAssistant.tn forwardServiceRegistration true
par SmartHomeNetwork.homeAssistant.tn forwardProtocolRegistration true
par SmartHomeNetwork.homeAssistant.at typename "\"inet.common.MessageDispatcher\""
par SmartHomeNetwork.homeAssistant.at displayStringTextFormat "\"processed %p pk (%l)\""
par SmartHomeNetwork.homeAssistant.at forwardServiceRegistration true
par SmartHomeNetwork.homeAssistant.at forwardProtocolRegistration true
par SmartHomeNetwork.homeAssistant typename "\"inet.node.inet.WirelessHost\""
par SmartHomeNetwork.homeAssistant hasStatus false
par SmartHomeNetwork.homeAssistant osgModel "\"\""
par SmartHomeNetwork.homeAssistant osgModelColor "\"\""
par SmartHomeNetwork.homeAssistant canvasImage "\"\""
par SmartHomeNetwork.homeAssistant canvasImageColor "\"\""
par SmartHomeNetwork.homeAssistant recordPcap false
par SmartHomeNetwork.homeAssistant numPcapRecorders 0
par SmartHomeNetwork.homeAssistant numLoInterfaces 1
par SmartHomeNetwork.homeAssistant numWlanInterfaces 1
par SmartHomeNetwork.homeAssistant numEthInterfaces 0
par SmartHomeNetwork.homeAssistant numPppInterfaces 0
par SmartHomeNetwork.homeAssistant numTunInterfaces 0
par SmartHomeNetwork.homeAssistant numVirtInterfaces 0
par SmartHomeNetwork.homeAssistant fcsMode "\"declared\""
attr enum declared,computed
par SmartHomeNetwork.homeAssistant hasIpv4 true
par SmartHomeNetwork.homeAssistant hasIpv6 false
par SmartHomeNetwork.homeAssistant hasGn false
par SmartHomeNetwork.homeAssistant forwarding false
par SmartHomeNetwork.homeAssistant multicastForwarding false
par SmartHomeNetwork.homeAssistant hasUdp true
par SmartHomeNetwork.homeAssistant hasTcp true
par SmartHomeNetwork.homeAssistant hasSctp false
par SmartHomeNetwork.homeAssistant numApps 0
par SmartHomeNetwork.physicalEnvironment typename "\"inet.environment.common.PhysicalEnvironment\""
par SmartHomeNetwork.physicalEnvironment coordinateSystemModule "\"\""
par SmartHomeNetwork.physicalEnvironment temperature 293K
attr unit K
par SmartHomeNetwork.physicalEnvironment spaceMinX "nan m"
attr unit m
par SmartHomeNetwork.physicalEnvironment spaceMinY "nan m"
attr unit m
par SmartHomeNetwork.physicalEnvironment spaceMinZ "nan m"
attr unit m
par SmartHomeNetwork.physicalEnvironment spaceMaxX "nan m"
attr unit m
par SmartHomeNetwork.physicalEnvironment spaceMaxY "nan m"
attr unit m
par SmartHomeNetwork.physicalEnvironment spaceMaxZ "nan m"
attr unit m
par SmartHomeNetwork.physicalEnvironment config "<environment>...</environment> at C:/omnetpp-6.1/samples/jaringan_nirkabel_2/simulations/\\walls.xml:1"
par SmartHomeNetwork typename "\"jaringan_nirkabel_2.simulations.SmartHomeNetwork\""
scalar SmartHomeNetwork packetDrop:count 0
attr recordingmode count
attr source packetDrop
scalar SmartHomeNetwork packetReceived:count 0
attr recordingmode count
attr source packetReceived
scalar SmartHomeNetwork packetSent:count 0
attr recordingmode count
attr source packetSent

