version 3
run General-0-20241222-09:46:38-104748
attr configname General
attr datetime 20241222-09:46:38
attr datetimef 20241222-094638
attr experiment General
attr inifile omnetpp.ini
attr iterationvars ""
attr iterationvarsd ""
attr iterationvarsf ""
attr measurement ""
attr network SmartHomeNetwork
attr processid 104748
attr repetition 0
attr replication #0
attr resultdir results
attr runnumber 0
attr seedset 0
config image-path ../../inet4.5/images
config network SmartHomeNetwork
config sim-time-limit 60s
config ..ipv4.arp.typename GlobalArp
config .accessPoint.wlan[].radio.transmitter.power 100mW
config ..wlan[*].radio.receiver.sensitivity -85dBm
config ..wlan[*].bitrate 10Mbps
config ..mobility.typename StationaryMobility
config ..mobility.initFromDisplayString false
config ..numApps 1
config ..app[0].typename UdpBasicApp
config ..app[0].destPort 5000
config ..app[0].messageLength 1000B
config ..app[0].sendInterval exponential(100ms)
config .accessPoint.wlan[].mgmt.typename Ieee80211MgmtApSimplified
config .accessPoint.wlan[].agent.typename ""
config ..wlan[*].agent.typename ""
config ..wlan[*].mgmt.typename Ieee80211MgmtStaSimplified
config ..wlan[*].mac.typename Ieee80211Mac
config ..wlan[*].mac.dcf.channelAccess.cwMin 7
config ..wlan[*].mac.dcf.channelAccess.cwMax 1023
config ..wlan[*].mac.dcf.channelAccess.aifsn 2
config ..wlan[*].mac.retryLimit 7
config ..wlan[*].radio.typename Ieee80211ScalarRadio
config ..wlan[*].radio.bandName "\"2.4 GHz\""
config ..wlan[*].radio.channelNumber 1
config ..wlan[*].radio.transmitter.typename Ieee80211ScalarTransmitter
config ..wlan[*].radio.receiver.typename Ieee80211ScalarReceiver
config .visualizer..mobilityVisualizer.displayMovementTrails true
config .visualizer..mobilityVisualizer.displayOrientations true
config .visualizer..mobilityVisualizer.displayVelocities true
config **.wlan[0].radio.displayCommunicationRange true
config *.visualizer.sceneVisualizer.descriptionFigure "\"title\""
config *.visualizer.mediumVisualizer.displaySignals true
config *.visualizer.physicalLinkVisualizer.displayLinks true
config *.visualizer.obstaclesVisualizer.displayObstacles true
config *.visualizer.signalVisualizer.displaySignals true
config **.app[0].recordStatistics true
config **.ipv4.recordStatistics true
config **.scalar-recording true
config *.radioMedium.obstacleLoss.typename DielectricObstacleLoss
config **.mobility.initialZ 1.7m
config **.wlan[0].radio.transmitter.communicationRange 50m
config **.wlan[0].typename Ieee80211Interface
config **.wlan[0].radio.typename Ieee80211Radio
config **.wlan[0].mac.typename Ieee80211Mac
config **.wlan[0].mibModule "\"Ieee80211Mib\""
config **.wlan[0].mac.ackTimeout 1ms
config **.wlan[0].queue.typename DropTailQueue
config **.wlan[0].queue.packetCapacity -1
config **.wlan[0].mac.useAck true
config *.smartLight2.app[0].destAddresses "\"accessPoint\""
config *.host[*].wlan[0].radio.transmitter.txPower 20mW
config *.host[*].wlan[0].radio.receiver.sensitivity -5dBm
config *.host[*].wlan[0].radio.phy.analogModel.pathLossModel "\"FreeSpacePathLoss\""

vector 0 SmartHomeNetwork.accessPoint.wlan[0].mac.dcf.channelAccess.pendingQueue queueLength:vector ETV
attr autoWarmupFilter false
attr interpolationmode sample-hold
attr recordingmode vector
attr source "warmup(atomic(constant0(packetPushEnded) + count(packetPushStarted) - count(packetPulled) - count(packetRemoved) - count(packetDropped)))"
attr title "queue length"
attr unit pk
vector 1 SmartHomeNetwork.accessPoint.wlan[0].mac.dcf.channelAccess.pendingQueue queueBitLength:vector ETV
attr autoWarmupFilter false
attr interpolationmode sample-hold
attr recordingmode vector
attr source "warmup(atomic(constant0(packetPushEnded) + sum(packetLength(packetPushStarted)) - sum(packetLength(packetPulled)) - sum(packetLength(packetRemoved)) - sum(packetLength(packetDropped))))"
attr title "queue bit length"
attr unit b
vector 2 SmartHomeNetwork.accessPoint.wlan[0].mac.dcf.channelAccess.pendingQueue queueingTime:vector ETV
attr interpolationmode none
attr recordingmode vector
attr source queueingTime(packetPulled)
attr title "queueing times"
attr unit s
vector 3 SmartHomeNetwork.accessPoint.wlan[0].mac.dcf.channelAccess.pendingQueue incomingPacketLengths:vector ETV
attr interpolationmode none
attr recordingmode vector
attr source packetLength(packetPushStarted)
attr title "incoming packet lengths"
attr unit b
vector 4 SmartHomeNetwork.accessPoint.wlan[0].mac.dcf.channelAccess.pendingQueue incomingDataRate:vector ETV
attr interpolationmode linear
attr recordingmode vector
attr source throughput(packetPushStarted)
attr title "incoming datarate"
attr unit bps
vector 5 SmartHomeNetwork.accessPoint.wlan[0].mac.dcf.channelAccess.pendingQueue outgoingPacketLengths:vector ETV
attr interpolationmode none
attr recordingmode vector
attr source packetLength(packetPulled)
attr title "outgoing packet lengths"
attr unit b
vector 6 SmartHomeNetwork.accessPoint.wlan[0].mac.dcf.channelAccess.pendingQueue outgoingDataRate:vector ETV
attr interpolationmode linear
attr recordingmode vector
attr source throughput(packetPulled)
attr title "outgoing datarate"
attr unit bps
vector 7 SmartHomeNetwork.accessPoint.wlan[0].mac.dcf.channelAccess.pendingQueue droppedPacketLengthsQueueOverflow:vector ETV
attr interpolationmode none
attr recordingmode vector
attr source packetLength(packetDropReasonIsQueueOverflow(packetDropped))
attr title "dropped packet lengths: queue overflow"
attr unit b
vector 8 SmartHomeNetwork.accessPoint.wlan[0].mac.dcf.channelAccess.pendingQueue flowQueueingTime:vector ETV
attr interpolationmode none
attr recordingmode vector
attr source queueingTime(demuxFlow(packetPulled))
attr title "flow queueing times"
attr unit s
vector 9 SmartHomeNetwork.accessPoint.wlan[0].mac.dcf.channelAccess.pendingQueue flowIncomingDataRate:vector ETV
attr interpolationmode linear
attr recordingmode vector
attr source throughput(flowPacketLength(demuxFlow(packetPushStarted)))
attr title "flow specific incoming data rate"
attr unit bps
vector 10 SmartHomeNetwork.accessPoint.wlan[0].mac.dcf.channelAccess.pendingQueue flowOutgoingDataRate:vector ETV
attr interpolationmode linear
attr recordingmode vector
attr source throughput(flowPacketLength(demuxFlow(packetPulled)))
attr title "flow specific outgoing data rate"
attr unit bps
vector 11 SmartHomeNetwork.accessPoint.wlan[0].mac.dcf.channelAccess.inProgressFrames queueingTime:vector ETV
attr interpolationmode none
attr recordingmode vector
attr source queueingTime(packetDequeued)
attr title "queueing times"
vector 12 SmartHomeNetwork.accessPoint.wlan[0].mac.dcf.channelAccess.inProgressFrames queueLength:vector ETV
attr autoWarmupFilter false
attr interpolationmode sample-hold
attr recordingmode vector
attr source "warmup(count(packetEnqueued) - count(packetDequeued))"
attr title "queue length"
vector 13 SmartHomeNetwork.accessPoint.wlan[0].mac.dcf.channelAccess.contention backoffPeriodGenerated:vector ETV
attr interpolationmode none
attr recordingmode vector
attr title "backoff periods"
vector 14 SmartHomeNetwork.accessPoint.wlan[0].mac.dcf.channelAccess.contention backoffActive:vector ETV
attr autoWarmupFilter false
attr interpolationmode sample-hold
attr recordingmode vector
attr source warmup(count(backoffStarted)-count(backoffStopped))
attr title "backoff active"
vector 15 SmartHomeNetwork.accessPoint.wlan[0].mac.dcf.channelAccess.contention stateChanged:vector ETV
attr enum IDLE,DEFER,IFS_AND_BACKOFF
attr interpolationmode none
attr recordingmode vector
attr title "contention state changed"
attr type enum
vector 16 SmartHomeNetwork.accessPoint.wlan[0].mac.dcf.recipientMacDataService packetDropDuplicateDetected:vector(packetBytes) ETV
attr interpolationmode none
attr recordingmode vector(packetBytes)
attr source packetDropReasonIsDuplicateDetected(packetDropped)
attr title "packet drops: duplicate detected, packetBytes"
vector 17 SmartHomeNetwork.accessPoint.wlan[0].mac.dcf.recoveryProcedure contentionWindowChanged:vector ETV
attr interpolationmode sample-hold
attr recordingmode vector
attr title "contention window"
vector 18 SmartHomeNetwork.accessPoint.wlan[0].mac.dcf packetSentToPeer:vector(packetBytes) ETV
attr interpolationmode none
attr recordingmode vector(packetBytes)
attr title "packets sent, packetBytes"
vector 19 SmartHomeNetwork.accessPoint.wlan[0].mac.dcf packetSentToPeerUnicast:vector(packetBytes) ETV
attr interpolationmode none
attr recordingmode vector(packetBytes)
attr source ieee80211Unicast(packetSentToPeer)
attr title "packets sent: unicast, packetBytes"
vector 20 SmartHomeNetwork.accessPoint.wlan[0].mac.dcf packetSentToPeerMulticast:vector(packetBytes) ETV
attr interpolationmode none
attr recordingmode vector(packetBytes)
attr source ieee80211Multicast(packetSentToPeer)
attr title "packets sent: multicast, packetBytes"
vector 21 SmartHomeNetwork.accessPoint.wlan[0].mac.dcf packetSentToPeerBroadcast:vector(packetBytes) ETV
attr interpolationmode none
attr recordingmode vector(packetBytes)
attr source ieee80211Broadcast(packetSentToPeer)
attr title "packets sent: broadcast , packetBytes"
vector 22 SmartHomeNetwork.accessPoint.wlan[0].mac.dcf packetSentToPeerWithRetry:vector(packetBytes) ETV
attr interpolationmode none
attr recordingmode vector(packetBytes)
attr source ieee80211Retry(packetSentToPeer)
attr title "packets sent: with retry, packetBytes"
vector 23 SmartHomeNetwork.accessPoint.wlan[0].mac.dcf packetSentToPeerWithoutRetry:vector(packetBytes) ETV
attr interpolationmode none
attr recordingmode vector(packetBytes)
attr source ieee80211NotRetry(packetSentToPeer)
attr title "packets sent: without retry, packetBytes"
vector 24 SmartHomeNetwork.accessPoint.wlan[0].mac.dcf packetReceivedFromPeer:vector(packetBytes) ETV
attr interpolationmode none
attr recordingmode vector(packetBytes)
attr title "packets received, packetBytes"
vector 25 SmartHomeNetwork.accessPoint.wlan[0].mac.dcf packetReceivedFromPeerUnicast:vector(packetBytes) ETV
attr interpolationmode none
attr recordingmode vector(packetBytes)
attr source ieee80211Unicast(packetReceivedFromPeer)
attr title "packets received: unicast, packetBytes"
vector 26 SmartHomeNetwork.accessPoint.wlan[0].mac.dcf packetReceivedFromPeerMulticast:vector(packetBytes) ETV
attr interpolationmode none
attr recordingmode vector(packetBytes)
attr source ieee80211Multicast(packetReceivedFromPeer)
attr title "packets received: multicast, packetBytes"
vector 27 SmartHomeNetwork.accessPoint.wlan[0].mac.dcf packetReceivedFromPeerBroadcast:vector(packetBytes) ETV
attr interpolationmode none
attr recordingmode vector(packetBytes)
attr source ieee80211Broadcast(packetReceivedFromPeer)
attr title "packets received: broadcast, packetBytes"
vector 28 SmartHomeNetwork.accessPoint.wlan[0].mac.dcf packetReceivedFromPeerWithRetry:vector(packetBytes) ETV
attr interpolationmode none
attr recordingmode vector(packetBytes)
attr source ieee80211Retry(packetReceivedFromPeer)
attr title "packets received: with retry, packetBytes"
vector 29 SmartHomeNetwork.accessPoint.wlan[0].mac.dcf packetReceivedFromPeerWithoutRetry:vector(packetBytes) ETV
attr interpolationmode none
attr recordingmode vector(packetBytes)
attr source ieee80211NotRetry(packetReceivedFromPeer)
attr title "packets received: without retry, packetBytes"
vector 30 SmartHomeNetwork.accessPoint.wlan[0].mac.dcf packetDrop:vector(packetBytes) ETV
attr interpolationmode none
attr recordingmode vector(packetBytes)
attr source packetDropped
attr title "packet drops, packetBytes"
vector 31 SmartHomeNetwork.accessPoint.wlan[0].mac.dcf packetDropNotAddressedToUs:vector(packetBytes) ETV
attr interpolationmode none
attr recordingmode vector(packetBytes)
attr source packetDropReasonIsNotAddressedToUs(packetDropped)
attr title "packet drops: not addressed to us, packetBytes"
vector 32 SmartHomeNetwork.accessPoint.wlan[0].mac.dcf packetDropQueueOverflow:vector(packetBytes) ETV
attr interpolationmode none
attr recordingmode vector(packetBytes)
attr source packetDropReasonIsQueueOverflow(packetDropped)
attr title "packet drops: queue overflow, packetBytes"
vector 33 SmartHomeNetwork.accessPoint.wlan[0].mac.dcf packetDropRetryLimitReached:vector(packetBytes) ETV
attr interpolationmode none
attr recordingmode vector(packetBytes)
attr source packetDropReasonIsRetryLimitReached(packetDropped)
attr title "packet drops: retry limit reached, packetBytes"
vector 34 SmartHomeNetwork.accessPoint.wlan[0].mac.dcf frameSequenceActive:vector ETV
attr autoWarmupFilter false
attr interpolationmode sample-hold
attr recordingmode vector
attr source warmup(count(frameSequenceStarted)-count(frameSequenceFinished))
attr title "frame sequence active"
vector 35 SmartHomeNetwork.accessPoint.wlan[0].mac.dcf datarateSelected:vector ETV
attr interpolationmode none
attr recordingmode vector
attr title "datarates selected"
vector 36 SmartHomeNetwork.accessPoint.wlan[0].mac.rx nav:vector ETV
attr interpolationmode linear
attr recordingmode vector
attr source navChanged
attr title "network allocation vector"
vector 37 SmartHomeNetwork.accessPoint.wlan[0].mac packetSentToUpper:vector(packetBytes) ETV
attr interpolationmode none
attr recordingmode vector(packetBytes)
attr title "packets sent to upper layer, packetBytes"
vector 38 SmartHomeNetwork.accessPoint.wlan[0].mac packetSentToLower:vector(packetBytes) ETV
attr interpolationmode none
attr recordingmode vector(packetBytes)
attr title "packets sent to lower layer, packetBytes"
vector 39 SmartHomeNetwork.accessPoint.wlan[0].mac packetReceivedFromUpper:vector(packetBytes) ETV
attr interpolationmode none
attr recordingmode vector(packetBytes)
attr title "packets received from upper layer, packetBytes"
vector 40 SmartHomeNetwork.accessPoint.wlan[0].mac packetReceivedFromLower:vector(packetBytes) ETV
attr interpolationmode none
attr recordingmode vector(packetBytes)
attr title "packets received from lower layer, packetBytes"
vector 41 SmartHomeNetwork.accessPoint.wlan[0].mac packetDrop:vector(packetBytes) ETV
attr interpolationmode none
attr recordingmode vector(packetBytes)
attr source packetDropped
attr title "packet drops, packetBytes"
vector 42 SmartHomeNetwork.accessPoint.wlan[0].mac packetDropIncorrectlyReceived:vector(packetBytes) ETV
attr interpolationmode none
attr recordingmode vector(packetBytes)
attr source packetDropReasonIsIncorrectlyReceived(packetDropped)
attr title "packet drops: incorrectly received, packetBytes"
vector 43 SmartHomeNetwork.accessPoint.wlan[0].mac packetDropNotAddressedToUs:vector(packetBytes) ETV
attr interpolationmode none
attr recordingmode vector(packetBytes)
attr source packetDropReasonIsNotAddressedToUs(packetDropped)
attr title "packet drops: not addressed to us, packetBytes"
vector 44 SmartHomeNetwork.accessPoint.wlan[0].mac packetDropQueueOverflow:vector(packetBytes) ETV
attr interpolationmode none
attr recordingmode vector(packetBytes)
attr source packetDropReasonIsQueueOverflow(packetDropped)
attr title "packet drops: queue overflow, packetBytes"
vector 45 SmartHomeNetwork.accessPoint.wlan[0].mac packetDropRetryLimitReached:vector(packetBytes) ETV
attr interpolationmode none
attr recordingmode vector(packetBytes)
attr source packetDropReasonIsRetryLimitReached(packetDropped)
attr title "packet drops: retry limit reached, packetBytes"
vector 46 SmartHomeNetwork.accessPoint.wlan[0].mac packetDropDuplicateDetected:vector(packetBytes) ETV
attr interpolationmode none
attr recordingmode vector(packetBytes)
attr source packetDropReasonIsDuplicateDetected(packetDropped)
attr title "packet drops: duplicate detected, packetBytes"
vector 47 SmartHomeNetwork.accessPoint.wlan[0].mac packetDropOther:vector(packetBytes) ETV
attr interpolationmode none
attr recordingmode vector(packetBytes)
attr source packetDropReasonIsOther(packetDropped)
attr title "packet drops: other, packetBytes"
vector 48 SmartHomeNetwork.accessPoint.wlan[0].radio radioMode:vector ETV
attr interpolationmode sample-hold
attr recordingmode vector
attr source radioModeChanged
attr title "Radio mode"
vector 49 SmartHomeNetwork.accessPoint.wlan[0].radio receptionState:vector ETV
attr interpolationmode sample-hold
attr recordingmode vector
attr source receptionStateChanged
attr title "Radio reception state"
vector 50 SmartHomeNetwork.accessPoint.wlan[0].radio transmissionState:vector ETV
attr interpolationmode sample-hold
attr recordingmode vector
attr source transmissionStateChanged
attr title "Radio transmission state"
vector 51 SmartHomeNetwork.accessPoint.wlan[0].radio radioChannel:vector ETV
attr interpolationmode sample-hold
attr recordingmode vector
attr source radioChannelChanged
attr title "Radio channel"
vector 52 SmartHomeNetwork.accessPoint.wlan[0] packetDropInterfaceDown:vector(packetBytes) ETV
attr interpolationmode none
attr recordingmode vector(packetBytes)
attr source packetDropReasonIsInterfaceDown(packetDropped)
attr title "packet drops: interface down, packetBytes"
vector 53 SmartHomeNetwork.accessPoint.wlan[0] packetDropNoCarrier:vector(packetBytes) ETV
attr interpolationmode none
attr recordingmode vector(packetBytes)
attr source packetDropReasonIsNoCarrier(packetDropped)
attr title "packet drops: no carrier, packetBytes"
vector 54 SmartHomeNetwork.smartLight1.lo[0].lo rcvdPkFromHl:vector(packetBytes) ETV
attr interpolationmode none
attr recordingmode vector(packetBytes)
attr source packetReceivedFromUpper
attr title "packets received from higher layer, packetBytes"
vector 55 SmartHomeNetwork.smartLight1.lo[0].lo passedUpPk:vector(packetBytes) ETV
attr interpolationmode none
attr recordingmode vector(packetBytes)
attr source packetSentToUpper
attr title "packets passed to higher layer, packetBytes"
vector 56 SmartHomeNetwork.smartLight1.lo[0] packetDropInterfaceDown:vector(packetBytes) ETV
attr interpolationmode none
attr recordingmode vector(packetBytes)
attr source packetDropReasonIsInterfaceDown(packetDropped)
attr title "packet drops: interface down, packetBytes"
vector 57 SmartHomeNetwork.smartLight1.lo[0] packetDropNoCarrier:vector(packetBytes) ETV
attr interpolationmode none
attr recordingmode vector(packetBytes)
attr source packetDropReasonIsNoCarrier(packetDropped)
attr title "packet drops: no carrier, packetBytes"
vector 58 SmartHomeNetwork.smartLight1.wlan[0].agent sentRequest:vector ETV
attr recordingmode vector
attr title "sent requests"
vector 59 SmartHomeNetwork.smartLight1.wlan[0].agent acceptConfirm:vector ETV
attr recordingmode vector
attr title "accepted confirms"
vector 60 SmartHomeNetwork.smartLight1.wlan[0].agent dropConfirm:vector ETV
attr recordingmode vector
attr title "dropped confirms"
vector 61 SmartHomeNetwork.smartLight1.wlan[0].mac.dcf.channelAccess.pendingQueue queueLength:vector ETV
attr autoWarmupFilter false
attr interpolationmode sample-hold
attr recordingmode vector
attr source "warmup(atomic(constant0(packetPushEnded) + count(packetPushStarted) - count(packetPulled) - count(packetRemoved) - count(packetDropped)))"
attr title "queue length"
attr unit pk
vector 62 SmartHomeNetwork.smartLight1.wlan[0].mac.dcf.channelAccess.pendingQueue queueBitLength:vector ETV
attr autoWarmupFilter false
attr interpolationmode sample-hold
attr recordingmode vector
attr source "warmup(atomic(constant0(packetPushEnded) + sum(packetLength(packetPushStarted)) - sum(packetLength(packetPulled)) - sum(packetLength(packetRemoved)) - sum(packetLength(packetDropped))))"
attr title "queue bit length"
attr unit b
vector 63 SmartHomeNetwork.smartLight1.wlan[0].mac.dcf.channelAccess.pendingQueue queueingTime:vector ETV
attr interpolationmode none
attr recordingmode vector
attr source queueingTime(packetPulled)
attr title "queueing times"
attr unit s
vector 64 SmartHomeNetwork.smartLight1.wlan[0].mac.dcf.channelAccess.pendingQueue incomingPacketLengths:vector ETV
attr interpolationmode none
attr recordingmode vector
attr source packetLength(packetPushStarted)
attr title "incoming packet lengths"
attr unit b
vector 65 SmartHomeNetwork.smartLight1.wlan[0].mac.dcf.channelAccess.pendingQueue incomingDataRate:vector ETV
attr interpolationmode linear
attr recordingmode vector
attr source throughput(packetPushStarted)
attr title "incoming datarate"
attr unit bps
vector 66 SmartHomeNetwork.smartLight1.wlan[0].mac.dcf.channelAccess.pendingQueue outgoingPacketLengths:vector ETV
attr interpolationmode none
attr recordingmode vector
attr source packetLength(packetPulled)
attr title "outgoing packet lengths"
attr unit b
vector 67 SmartHomeNetwork.smartLight1.wlan[0].mac.dcf.channelAccess.pendingQueue outgoingDataRate:vector ETV
attr interpolationmode linear
attr recordingmode vector
attr source throughput(packetPulled)
attr title "outgoing datarate"
attr unit bps
vector 68 SmartHomeNetwork.smartLight1.wlan[0].mac.dcf.channelAccess.pendingQueue droppedPacketLengthsQueueOverflow:vector ETV
attr interpolationmode none
attr recordingmode vector
attr source packetLength(packetDropReasonIsQueueOverflow(packetDropped))
attr title "dropped packet lengths: queue overflow"
attr unit b
vector 69 SmartHomeNetwork.smartLight1.wlan[0].mac.dcf.channelAccess.pendingQueue flowQueueingTime:vector ETV
attr interpolationmode none
attr recordingmode vector
attr source queueingTime(demuxFlow(packetPulled))
attr title "flow queueing times"
attr unit s
vector 70 SmartHomeNetwork.smartLight1.wlan[0].mac.dcf.channelAccess.pendingQueue flowIncomingDataRate:vector ETV
attr interpolationmode linear
attr recordingmode vector
attr source throughput(flowPacketLength(demuxFlow(packetPushStarted)))
attr title "flow specific incoming data rate"
attr unit bps
vector 71 SmartHomeNetwork.smartLight1.wlan[0].mac.dcf.channelAccess.pendingQueue flowOutgoingDataRate:vector ETV
attr interpolationmode linear
attr recordingmode vector
attr source throughput(flowPacketLength(demuxFlow(packetPulled)))
attr title "flow specific outgoing data rate"
attr unit bps
vector 72 SmartHomeNetwork.smartLight1.wlan[0].mac.dcf.channelAccess.inProgressFrames queueingTime:vector ETV
attr interpolationmode none
attr recordingmode vector
attr source queueingTime(packetDequeued)
attr title "queueing times"
vector 73 SmartHomeNetwork.smartLight1.wlan[0].mac.dcf.channelAccess.inProgressFrames queueLength:vector ETV
attr autoWarmupFilter false
attr interpolationmode sample-hold
attr recordingmode vector
attr source "warmup(count(packetEnqueued) - count(packetDequeued))"
attr title "queue length"
vector 74 SmartHomeNetwork.smartLight1.wlan[0].mac.dcf.channelAccess.contention backoffPeriodGenerated:vector ETV
attr interpolationmode none
attr recordingmode vector
attr title "backoff periods"
vector 75 SmartHomeNetwork.smartLight1.wlan[0].mac.dcf.channelAccess.contention backoffActive:vector ETV
attr autoWarmupFilter false
attr interpolationmode sample-hold
attr recordingmode vector
attr source warmup(count(backoffStarted)-count(backoffStopped))
attr title "backoff active"
vector 76 SmartHomeNetwork.smartLight1.wlan[0].mac.dcf.channelAccess.contention stateChanged:vector ETV
attr enum IDLE,DEFER,IFS_AND_BACKOFF
attr interpolationmode none
attr recordingmode vector
attr title "contention state changed"
attr type enum
vector 77 SmartHomeNetwork.smartLight1.wlan[0].mac.dcf.recipientMacDataService packetDropDuplicateDetected:vector(packetBytes) ETV
attr interpolationmode none
attr recordingmode vector(packetBytes)
attr source packetDropReasonIsDuplicateDetected(packetDropped)
attr title "packet drops: duplicate detected, packetBytes"
vector 78 SmartHomeNetwork.smartLight1.wlan[0].mac.dcf.recoveryProcedure contentionWindowChanged:vector ETV
attr interpolationmode sample-hold
attr recordingmode vector
attr title "contention window"
vector 79 SmartHomeNetwork.smartLight1.wlan[0].mac.dcf packetSentToPeer:vector(packetBytes) ETV
attr interpolationmode none
attr recordingmode vector(packetBytes)
attr title "packets sent, packetBytes"
vector 80 SmartHomeNetwork.smartLight1.wlan[0].mac.dcf packetSentToPeerUnicast:vector(packetBytes) ETV
attr interpolationmode none
attr recordingmode vector(packetBytes)
attr source ieee80211Unicast(packetSentToPeer)
attr title "packets sent: unicast, packetBytes"
vector 81 SmartHomeNetwork.smartLight1.wlan[0].mac.dcf packetSentToPeerMulticast:vector(packetBytes) ETV
attr interpolationmode none
attr recordingmode vector(packetBytes)
attr source ieee80211Multicast(packetSentToPeer)
attr title "packets sent: multicast, packetBytes"
vector 82 SmartHomeNetwork.smartLight1.wlan[0].mac.dcf packetSentToPeerBroadcast:vector(packetBytes) ETV
attr interpolationmode none
attr recordingmode vector(packetBytes)
attr source ieee80211Broadcast(packetSentToPeer)
attr title "packets sent: broadcast , packetBytes"
vector 83 SmartHomeNetwork.smartLight1.wlan[0].mac.dcf packetSentToPeerWithRetry:vector(packetBytes) ETV
attr interpolationmode none
attr recordingmode vector(packetBytes)
attr source ieee80211Retry(packetSentToPeer)
attr title "packets sent: with retry, packetBytes"
vector 84 SmartHomeNetwork.smartLight1.wlan[0].mac.dcf packetSentToPeerWithoutRetry:vector(packetBytes) ETV
attr interpolationmode none
attr recordingmode vector(packetBytes)
attr source ieee80211NotRetry(packetSentToPeer)
attr title "packets sent: without retry, packetBytes"
vector 85 SmartHomeNetwork.smartLight1.wlan[0].mac.dcf packetReceivedFromPeer:vector(packetBytes) ETV
attr interpolationmode none
attr recordingmode vector(packetBytes)
attr title "packets received, packetBytes"
vector 86 SmartHomeNetwork.smartLight1.wlan[0].mac.dcf packetReceivedFromPeerUnicast:vector(packetBytes) ETV
attr interpolationmode none
attr recordingmode vector(packetBytes)
attr source ieee80211Unicast(packetReceivedFromPeer)
attr title "packets received: unicast, packetBytes"
vector 87 SmartHomeNetwork.smartLight1.wlan[0].mac.dcf packetReceivedFromPeerMulticast:vector(packetBytes) ETV
attr interpolationmode none
attr recordingmode vector(packetBytes)
attr source ieee80211Multicast(packetReceivedFromPeer)
attr title "packets received: multicast, packetBytes"
vector 88 SmartHomeNetwork.smartLight1.wlan[0].mac.dcf packetReceivedFromPeerBroadcast:vector(packetBytes) ETV
attr interpolationmode none
attr recordingmode vector(packetBytes)
attr source ieee80211Broadcast(packetReceivedFromPeer)
attr title "packets received: broadcast, packetBytes"
vector 89 SmartHomeNetwork.smartLight1.wlan[0].mac.dcf packetReceivedFromPeerWithRetry:vector(packetBytes) ETV
attr interpolationmode none
attr recordingmode vector(packetBytes)
attr source ieee80211Retry(packetReceivedFromPeer)
attr title "packets received: with retry, packetBytes"
vector 90 SmartHomeNetwork.smartLight1.wlan[0].mac.dcf packetReceivedFromPeerWithoutRetry:vector(packetBytes) ETV
attr interpolationmode none
attr recordingmode vector(packetBytes)
attr source ieee80211NotRetry(packetReceivedFromPeer)
attr title "packets received: without retry, packetBytes"
vector 91 SmartHomeNetwork.smartLight1.wlan[0].mac.dcf packetDrop:vector(packetBytes) ETV
attr interpolationmode none
attr recordingmode vector(packetBytes)
attr source packetDropped
attr title "packet drops, packetBytes"
vector 92 SmartHomeNetwork.smartLight1.wlan[0].mac.dcf packetDropNotAddressedToUs:vector(packetBytes) ETV
attr interpolationmode none
attr recordingmode vector(packetBytes)
attr source packetDropReasonIsNotAddressedToUs(packetDropped)
attr title "packet drops: not addressed to us, packetBytes"
vector 93 SmartHomeNetwork.smartLight1.wlan[0].mac.dcf packetDropQueueOverflow:vector(packetBytes) ETV
attr interpolationmode none
attr recordingmode vector(packetBytes)
attr source packetDropReasonIsQueueOverflow(packetDropped)
attr title "packet drops: queue overflow, packetBytes"
vector 94 SmartHomeNetwork.smartLight1.wlan[0].mac.dcf packetDropRetryLimitReached:vector(packetBytes) ETV
attr interpolationmode none
attr recordingmode vector(packetBytes)
attr source packetDropReasonIsRetryLimitReached(packetDropped)
attr title "packet drops: retry limit reached, packetBytes"
vector 95 SmartHomeNetwork.smartLight1.wlan[0].mac.dcf frameSequenceActive:vector ETV
attr autoWarmupFilter false
attr interpolationmode sample-hold
attr recordingmode vector
attr source warmup(count(frameSequenceStarted)-count(frameSequenceFinished))
attr title "frame sequence active"
vector 96 SmartHomeNetwork.smartLight1.wlan[0].mac.dcf datarateSelected:vector ETV
attr interpolationmode none
attr recordingmode vector
attr title "datarates selected"
vector 97 SmartHomeNetwork.smartLight1.wlan[0].mac.rx nav:vector ETV
attr interpolationmode linear
attr recordingmode vector
attr source navChanged
attr title "network allocation vector"
vector 98 SmartHomeNetwork.smartLight1.wlan[0].mac packetSentToUpper:vector(packetBytes) ETV
attr interpolationmode none
attr recordingmode vector(packetBytes)
attr title "packets sent to upper layer, packetBytes"
vector 99 SmartHomeNetwork.smartLight1.wlan[0].mac packetSentToLower:vector(packetBytes) ETV
attr interpolationmode none
attr recordingmode vector(packetBytes)
attr title "packets sent to lower layer, packetBytes"
vector 100 SmartHomeNetwork.smartLight1.wlan[0].mac packetReceivedFromUpper:vector(packetBytes) ETV
attr interpolationmode none
attr recordingmode vector(packetBytes)
attr title "packets received from upper layer, packetBytes"
vector 101 SmartHomeNetwork.smartLight1.wlan[0].mac packetReceivedFromLower:vector(packetBytes) ETV
attr interpolationmode none
attr recordingmode vector(packetBytes)
attr title "packets received from lower layer, packetBytes"
vector 102 SmartHomeNetwork.smartLight1.wlan[0].mac packetDrop:vector(packetBytes) ETV
attr interpolationmode none
attr recordingmode vector(packetBytes)
attr source packetDropped
attr title "packet drops, packetBytes"
vector 103 SmartHomeNetwork.smartLight1.wlan[0].mac packetDropIncorrectlyReceived:vector(packetBytes) ETV
attr interpolationmode none
attr recordingmode vector(packetBytes)
attr source packetDropReasonIsIncorrectlyReceived(packetDropped)
attr title "packet drops: incorrectly received, packetBytes"
vector 104 SmartHomeNetwork.smartLight1.wlan[0].mac packetDropNotAddressedToUs:vector(packetBytes) ETV
attr interpolationmode none
attr recordingmode vector(packetBytes)
attr source packetDropReasonIsNotAddressedToUs(packetDropped)
attr title "packet drops: not addressed to us, packetBytes"
vector 105 SmartHomeNetwork.smartLight1.wlan[0].mac packetDropQueueOverflow:vector(packetBytes) ETV
attr interpolationmode none
attr recordingmode vector(packetBytes)
attr source packetDropReasonIsQueueOverflow(packetDropped)
attr title "packet drops: queue overflow, packetBytes"
vector 106 SmartHomeNetwork.smartLight1.wlan[0].mac packetDropRetryLimitReached:vector(packetBytes) ETV
attr interpolationmode none
attr recordingmode vector(packetBytes)
attr source packetDropReasonIsRetryLimitReached(packetDropped)
attr title "packet drops: retry limit reached, packetBytes"
vector 107 SmartHomeNetwork.smartLight1.wlan[0].mac packetDropDuplicateDetected:vector(packetBytes) ETV
attr interpolationmode none
attr recordingmode vector(packetBytes)
attr source packetDropReasonIsDuplicateDetected(packetDropped)
attr title "packet drops: duplicate detected, packetBytes"
vector 108 SmartHomeNetwork.smartLight1.wlan[0].mac packetDropOther:vector(packetBytes) ETV
attr interpolationmode none
attr recordingmode vector(packetBytes)
attr source packetDropReasonIsOther(packetDropped)
attr title "packet drops: other, packetBytes"
vector 109 SmartHomeNetwork.smartLight1.wlan[0].radio radioMode:vector ETV
attr interpolationmode sample-hold
attr recordingmode vector
attr source radioModeChanged
attr title "Radio mode"
vector 110 SmartHomeNetwork.smartLight1.wlan[0].radio receptionState:vector ETV
attr interpolationmode sample-hold
attr recordingmode vector
attr source receptionStateChanged
attr title "Radio reception state"
vector 111 SmartHomeNetwork.smartLight1.wlan[0].radio transmissionState:vector ETV
attr interpolationmode sample-hold
attr recordingmode vector
attr source transmissionStateChanged
attr title "Radio transmission state"
vector 112 SmartHomeNetwork.smartLight1.wlan[0].radio radioChannel:vector ETV
attr interpolationmode sample-hold
attr recordingmode vector
attr source radioChannelChanged
attr title "Radio channel"
vector 113 SmartHomeNetwork.smartLight1.wlan[0] packetDropInterfaceDown:vector(packetBytes) ETV
attr interpolationmode none
attr recordingmode vector(packetBytes)
attr source packetDropReasonIsInterfaceDown(packetDropped)
attr title "packet drops: interface down, packetBytes"
vector 114 SmartHomeNetwork.smartLight1.wlan[0] packetDropNoCarrier:vector(packetBytes) ETV
attr interpolationmode none
attr recordingmode vector(packetBytes)
attr source packetDropReasonIsNoCarrier(packetDropped)
attr title "packet drops: no carrier, packetBytes"
vector 115 SmartHomeNetwork.smartLight1.ipv4.ip packetDropAddressResolutionFailed:vector(packetBytes) ETV
attr interpolationmode none
attr recordingmode vector(packetBytes)
attr source packetDropReasonIsAddressResolutionFailed(packetDropped)
attr title "packet drop: address resolution failed, packetBytes"
vector 116 SmartHomeNetwork.smartLight1.ipv4.ip packetDropHopLimitReached:vector(packetBytes) ETV
attr interpolationmode none
attr recordingmode vector(packetBytes)
attr source packetDropReasonIsHopLimitReached(packetDropped)
attr title "packet drop: hop limit reached, packetBytes"
vector 117 SmartHomeNetwork.smartLight1.ipv4.ip packetDropForwardingDisabled:vector(packetBytes) ETV
attr interpolationmode none
attr recordingmode vector(packetBytes)
attr source packetDropReasonIsForwardingDisabled(packetDropped)
attr title "packet drop: forwarding disabled, packetBytes"
vector 118 SmartHomeNetwork.smartLight1.ipv4.ip packetDropNoInterfaceFound:vector(packetBytes) ETV
attr interpolationmode none
attr recordingmode vector(packetBytes)
attr source packetDropReasonIsNoInterfaceFound(packetDropped)
attr title "packet drop: no interface found, packetBytes"
vector 119 SmartHomeNetwork.smartLight1.ipv4.ip packetDropNoRouteFound:vector(packetBytes) ETV
attr interpolationmode none
attr recordingmode vector(packetBytes)
attr source packetDropReasonIsNoRouteFound(packetDropped)
attr title "packet drop: no route found, packetBytes"
vector 120 SmartHomeNetwork.smartLight1.ipv4.ip packetDropUndefined:vector(packetBytes) ETV
attr interpolationmode none
attr recordingmode vector(packetBytes)
attr source packetDropReasonIsUndefined(packetDropped)
attr title "packet drop: undefined, packetBytes"
vector 121 SmartHomeNetwork.smartLight1.ipv4.arp arpRequestSent:vector(packetBytes) ETV
attr recordingmode vector(packetBytes)
attr source arpRequestSent
attr title "ARP request sent, packetBytes"
vector 122 SmartHomeNetwork.smartLight1.ipv4.arp arpReplySent:vector(packetBytes) ETV
attr recordingmode vector(packetBytes)
attr source arpReplySent
attr title "ARP replies sent, packetBytes"
vector 123 SmartHomeNetwork.smartLight1.udp packetSent:vector(packetBytes) ETV
attr interpolationmode none
attr recordingmode vector(packetBytes)
attr source packetSent
attr title "packets sent, packetBytes"
vector 124 SmartHomeNetwork.smartLight1.udp packetReceived:vector(packetBytes) ETV
attr interpolationmode none
attr recordingmode vector(packetBytes)
attr source packetReceived
attr title "packets received, packetBytes"
vector 125 SmartHomeNetwork.smartLight1.udp passedUpPk:vector(count) ETV
attr interpolationmode none
attr recordingmode vector(count)
attr source packetSentToUpper
attr title "packets passed up, count"
vector 126 SmartHomeNetwork.smartLight1.udp droppedPkWrongPort:vector(count) ETV
attr interpolationmode none
attr recordingmode vector(count)
attr source packetDropReasonIsNoPortFound(packetDropped)
attr title "packets dropped (wrong port), count"
vector 127 SmartHomeNetwork.smartLight1.udp droppedPkBadChecksum:vector(count) ETV
attr interpolationmode none
attr recordingmode vector(count)
attr source packetDropReasonIsIncorrectlyReceived(packetDropped)
attr title "packets dropped (checksum error), count"
vector 128 SmartHomeNetwork.smartLight2.lo[0].lo rcvdPkFromHl:vector(packetBytes) ETV
attr interpolationmode none
attr recordingmode vector(packetBytes)
attr source packetReceivedFromUpper
attr title "packets received from higher layer, packetBytes"
vector 129 SmartHomeNetwork.smartLight2.lo[0].lo passedUpPk:vector(packetBytes) ETV
attr interpolationmode none
attr recordingmode vector(packetBytes)
attr source packetSentToUpper
attr title "packets passed to higher layer, packetBytes"
vector 130 SmartHomeNetwork.smartLight2.lo[0] packetDropInterfaceDown:vector(packetBytes) ETV
attr interpolationmode none
attr recordingmode vector(packetBytes)
attr source packetDropReasonIsInterfaceDown(packetDropped)
attr title "packet drops: interface down, packetBytes"
vector 131 SmartHomeNetwork.smartLight2.lo[0] packetDropNoCarrier:vector(packetBytes) ETV
attr interpolationmode none
attr recordingmode vector(packetBytes)
attr source packetDropReasonIsNoCarrier(packetDropped)
attr title "packet drops: no carrier, packetBytes"
vector 132 SmartHomeNetwork.smartLight2.wlan[0].agent sentRequest:vector ETV
attr recordingmode vector
attr title "sent requests"
vector 133 SmartHomeNetwork.smartLight2.wlan[0].agent acceptConfirm:vector ETV
attr recordingmode vector
attr title "accepted confirms"
vector 134 SmartHomeNetwork.smartLight2.wlan[0].agent dropConfirm:vector ETV
attr recordingmode vector
attr title "dropped confirms"
vector 135 SmartHomeNetwork.smartLight2.wlan[0].mac.dcf.channelAccess.pendingQueue queueLength:vector ETV
attr autoWarmupFilter false
attr interpolationmode sample-hold
attr recordingmode vector
attr source "warmup(atomic(constant0(packetPushEnded) + count(packetPushStarted) - count(packetPulled) - count(packetRemoved) - count(packetDropped)))"
attr title "queue length"
attr unit pk
vector 136 SmartHomeNetwork.smartLight2.wlan[0].mac.dcf.channelAccess.pendingQueue queueBitLength:vector ETV
attr autoWarmupFilter false
attr interpolationmode sample-hold
attr recordingmode vector
attr source "warmup(atomic(constant0(packetPushEnded) + sum(packetLength(packetPushStarted)) - sum(packetLength(packetPulled)) - sum(packetLength(packetRemoved)) - sum(packetLength(packetDropped))))"
attr title "queue bit length"
attr unit b
vector 137 SmartHomeNetwork.smartLight2.wlan[0].mac.dcf.channelAccess.pendingQueue queueingTime:vector ETV
attr interpolationmode none
attr recordingmode vector
attr source queueingTime(packetPulled)
attr title "queueing times"
attr unit s
vector 138 SmartHomeNetwork.smartLight2.wlan[0].mac.dcf.channelAccess.pendingQueue incomingPacketLengths:vector ETV
attr interpolationmode none
attr recordingmode vector
attr source packetLength(packetPushStarted)
attr title "incoming packet lengths"
attr unit b
vector 139 SmartHomeNetwork.smartLight2.wlan[0].mac.dcf.channelAccess.pendingQueue incomingDataRate:vector ETV
attr interpolationmode linear
attr recordingmode vector
attr source throughput(packetPushStarted)
attr title "incoming datarate"
attr unit bps
vector 140 SmartHomeNetwork.smartLight2.wlan[0].mac.dcf.channelAccess.pendingQueue outgoingPacketLengths:vector ETV
attr interpolationmode none
attr recordingmode vector
attr source packetLength(packetPulled)
attr title "outgoing packet lengths"
attr unit b
vector 141 SmartHomeNetwork.smartLight2.wlan[0].mac.dcf.channelAccess.pendingQueue outgoingDataRate:vector ETV
attr interpolationmode linear
attr recordingmode vector
attr source throughput(packetPulled)
attr title "outgoing datarate"
attr unit bps
vector 142 SmartHomeNetwork.smartLight2.wlan[0].mac.dcf.channelAccess.pendingQueue droppedPacketLengthsQueueOverflow:vector ETV
attr interpolationmode none
attr recordingmode vector
attr source packetLength(packetDropReasonIsQueueOverflow(packetDropped))
attr title "dropped packet lengths: queue overflow"
attr unit b
vector 143 SmartHomeNetwork.smartLight2.wlan[0].mac.dcf.channelAccess.pendingQueue flowQueueingTime:vector ETV
attr interpolationmode none
attr recordingmode vector
attr source queueingTime(demuxFlow(packetPulled))
attr title "flow queueing times"
attr unit s
vector 144 SmartHomeNetwork.smartLight2.wlan[0].mac.dcf.channelAccess.pendingQueue flowIncomingDataRate:vector ETV
attr interpolationmode linear
attr recordingmode vector
attr source throughput(flowPacketLength(demuxFlow(packetPushStarted)))
attr title "flow specific incoming data rate"
attr unit bps
vector 145 SmartHomeNetwork.smartLight2.wlan[0].mac.dcf.channelAccess.pendingQueue flowOutgoingDataRate:vector ETV
attr interpolationmode linear
attr recordingmode vector
attr source throughput(flowPacketLength(demuxFlow(packetPulled)))
attr title "flow specific outgoing data rate"
attr unit bps
vector 146 SmartHomeNetwork.smartLight2.wlan[0].mac.dcf.channelAccess.inProgressFrames queueingTime:vector ETV
attr interpolationmode none
attr recordingmode vector
attr source queueingTime(packetDequeued)
attr title "queueing times"
vector 147 SmartHomeNetwork.smartLight2.wlan[0].mac.dcf.channelAccess.inProgressFrames queueLength:vector ETV
attr autoWarmupFilter false
attr interpolationmode sample-hold
attr recordingmode vector
attr source "warmup(count(packetEnqueued) - count(packetDequeued))"
attr title "queue length"
vector 148 SmartHomeNetwork.smartLight2.wlan[0].mac.dcf.channelAccess.contention backoffPeriodGenerated:vector ETV
attr interpolationmode none
attr recordingmode vector
attr title "backoff periods"
vector 149 SmartHomeNetwork.smartLight2.wlan[0].mac.dcf.channelAccess.contention backoffActive:vector ETV
attr autoWarmupFilter false
attr interpolationmode sample-hold
attr recordingmode vector
attr source warmup(count(backoffStarted)-count(backoffStopped))
attr title "backoff active"
vector 150 SmartHomeNetwork.smartLight2.wlan[0].mac.dcf.channelAccess.contention stateChanged:vector ETV
attr enum IDLE,DEFER,IFS_AND_BACKOFF
attr interpolationmode none
attr recordingmode vector
attr title "contention state changed"
attr type enum
vector 151 SmartHomeNetwork.smartLight2.wlan[0].mac.dcf.recipientMacDataService packetDropDuplicateDetected:vector(packetBytes) ETV
attr interpolationmode none
attr recordingmode vector(packetBytes)
attr source packetDropReasonIsDuplicateDetected(packetDropped)
attr title "packet drops: duplicate detected, packetBytes"
vector 152 SmartHomeNetwork.smartLight2.wlan[0].mac.dcf.recoveryProcedure contentionWindowChanged:vector ETV
attr interpolationmode sample-hold
attr recordingmode vector
attr title "contention window"
vector 153 SmartHomeNetwork.smartLight2.wlan[0].mac.dcf packetSentToPeer:vector(packetBytes) ETV
attr interpolationmode none
attr recordingmode vector(packetBytes)
attr title "packets sent, packetBytes"
vector 154 SmartHomeNetwork.smartLight2.wlan[0].mac.dcf packetSentToPeerUnicast:vector(packetBytes) ETV
attr interpolationmode none
attr recordingmode vector(packetBytes)
attr source ieee80211Unicast(packetSentToPeer)
attr title "packets sent: unicast, packetBytes"
vector 155 SmartHomeNetwork.smartLight2.wlan[0].mac.dcf packetSentToPeerMulticast:vector(packetBytes) ETV
attr interpolationmode none
attr recordingmode vector(packetBytes)
attr source ieee80211Multicast(packetSentToPeer)
attr title "packets sent: multicast, packetBytes"
vector 156 SmartHomeNetwork.smartLight2.wlan[0].mac.dcf packetSentToPeerBroadcast:vector(packetBytes) ETV
attr interpolationmode none
attr recordingmode vector(packetBytes)
attr source ieee80211Broadcast(packetSentToPeer)
attr title "packets sent: broadcast , packetBytes"
vector 157 SmartHomeNetwork.smartLight2.wlan[0].mac.dcf packetSentToPeerWithRetry:vector(packetBytes) ETV
attr interpolationmode none
attr recordingmode vector(packetBytes)
attr source ieee80211Retry(packetSentToPeer)
attr title "packets sent: with retry, packetBytes"
vector 158 SmartHomeNetwork.smartLight2.wlan[0].mac.dcf packetSentToPeerWithoutRetry:vector(packetBytes) ETV
attr interpolationmode none
attr recordingmode vector(packetBytes)
attr source ieee80211NotRetry(packetSentToPeer)
attr title "packets sent: without retry, packetBytes"
vector 159 SmartHomeNetwork.smartLight2.wlan[0].mac.dcf packetReceivedFromPeer:vector(packetBytes) ETV
attr interpolationmode none
attr recordingmode vector(packetBytes)
attr title "packets received, packetBytes"
vector 160 SmartHomeNetwork.smartLight2.wlan[0].mac.dcf packetReceivedFromPeerUnicast:vector(packetBytes) ETV
attr interpolationmode none
attr recordingmode vector(packetBytes)
attr source ieee80211Unicast(packetReceivedFromPeer)
attr title "packets received: unicast, packetBytes"
vector 161 SmartHomeNetwork.smartLight2.wlan[0].mac.dcf packetReceivedFromPeerMulticast:vector(packetBytes) ETV
attr interpolationmode none
attr recordingmode vector(packetBytes)
attr source ieee80211Multicast(packetReceivedFromPeer)
attr title "packets received: multicast, packetBytes"
vector 162 SmartHomeNetwork.smartLight2.wlan[0].mac.dcf packetReceivedFromPeerBroadcast:vector(packetBytes) ETV
attr interpolationmode none
attr recordingmode vector(packetBytes)
attr source ieee80211Broadcast(packetReceivedFromPeer)
attr title "packets received: broadcast, packetBytes"
vector 163 SmartHomeNetwork.smartLight2.wlan[0].mac.dcf packetReceivedFromPeerWithRetry:vector(packetBytes) ETV
attr interpolationmode none
attr recordingmode vector(packetBytes)
attr source ieee80211Retry(packetReceivedFromPeer)
attr title "packets received: with retry, packetBytes"
vector 164 SmartHomeNetwork.smartLight2.wlan[0].mac.dcf packetReceivedFromPeerWithoutRetry:vector(packetBytes) ETV
attr interpolationmode none
attr recordingmode vector(packetBytes)
attr source ieee80211NotRetry(packetReceivedFromPeer)
attr title "packets received: without retry, packetBytes"
vector 165 SmartHomeNetwork.smartLight2.wlan[0].mac.dcf packetDrop:vector(packetBytes) ETV
attr interpolationmode none
attr recordingmode vector(packetBytes)
attr source packetDropped
attr title "packet drops, packetBytes"
vector 166 SmartHomeNetwork.smartLight2.wlan[0].mac.dcf packetDropNotAddressedToUs:vector(packetBytes) ETV
attr interpolationmode none
attr recordingmode vector(packetBytes)
attr source packetDropReasonIsNotAddressedToUs(packetDropped)
attr title "packet drops: not addressed to us, packetBytes"
vector 167 SmartHomeNetwork.smartLight2.wlan[0].mac.dcf packetDropQueueOverflow:vector(packetBytes) ETV
attr interpolationmode none
attr recordingmode vector(packetBytes)
attr source packetDropReasonIsQueueOverflow(packetDropped)
attr title "packet drops: queue overflow, packetBytes"
vector 168 SmartHomeNetwork.smartLight2.wlan[0].mac.dcf packetDropRetryLimitReached:vector(packetBytes) ETV
attr interpolationmode none
attr recordingmode vector(packetBytes)
attr source packetDropReasonIsRetryLimitReached(packetDropped)
attr title "packet drops: retry limit reached, packetBytes"
vector 169 SmartHomeNetwork.smartLight2.wlan[0].mac.dcf frameSequenceActive:vector ETV
attr autoWarmupFilter false
attr interpolationmode sample-hold
attr recordingmode vector
attr source warmup(count(frameSequenceStarted)-count(frameSequenceFinished))
attr title "frame sequence active"
vector 170 SmartHomeNetwork.smartLight2.wlan[0].mac.dcf datarateSelected:vector ETV
attr interpolationmode none
attr recordingmode vector
attr title "datarates selected"
vector 171 SmartHomeNetwork.smartLight2.wlan[0].mac.rx nav:vector ETV
attr interpolationmode linear
attr recordingmode vector
attr source navChanged
attr title "network allocation vector"
vector 172 SmartHomeNetwork.smartLight2.wlan[0].mac packetSentToUpper:vector(packetBytes) ETV
attr interpolationmode none
attr recordingmode vector(packetBytes)
attr title "packets sent to upper layer, packetBytes"
vector 173 SmartHomeNetwork.smartLight2.wlan[0].mac packetSentToLower:vector(packetBytes) ETV
attr interpolationmode none
attr recordingmode vector(packetBytes)
attr title "packets sent to lower layer, packetBytes"
vector 174 SmartHomeNetwork.smartLight2.wlan[0].mac packetReceivedFromUpper:vector(packetBytes) ETV
attr interpolationmode none
attr recordingmode vector(packetBytes)
attr title "packets received from upper layer, packetBytes"
vector 175 SmartHomeNetwork.smartLight2.wlan[0].mac packetReceivedFromLower:vector(packetBytes) ETV
attr interpolationmode none
attr recordingmode vector(packetBytes)
attr title "packets received from lower layer, packetBytes"
vector 176 SmartHomeNetwork.smartLight2.wlan[0].mac packetDrop:vector(packetBytes) ETV
attr interpolationmode none
attr recordingmode vector(packetBytes)
attr source packetDropped
attr title "packet drops, packetBytes"
vector 177 SmartHomeNetwork.smartLight2.wlan[0].mac packetDropIncorrectlyReceived:vector(packetBytes) ETV
attr interpolationmode none
attr recordingmode vector(packetBytes)
attr source packetDropReasonIsIncorrectlyReceived(packetDropped)
attr title "packet drops: incorrectly received, packetBytes"
vector 178 SmartHomeNetwork.smartLight2.wlan[0].mac packetDropNotAddressedToUs:vector(packetBytes) ETV
attr interpolationmode none
attr recordingmode vector(packetBytes)
attr source packetDropReasonIsNotAddressedToUs(packetDropped)
attr title "packet drops: not addressed to us, packetBytes"
vector 179 SmartHomeNetwork.smartLight2.wlan[0].mac packetDropQueueOverflow:vector(packetBytes) ETV
attr interpolationmode none
attr recordingmode vector(packetBytes)
attr source packetDropReasonIsQueueOverflow(packetDropped)
attr title "packet drops: queue overflow, packetBytes"
vector 180 SmartHomeNetwork.smartLight2.wlan[0].mac packetDropRetryLimitReached:vector(packetBytes) ETV
attr interpolationmode none
attr recordingmode vector(packetBytes)
attr source packetDropReasonIsRetryLimitReached(packetDropped)
attr title "packet drops: retry limit reached, packetBytes"
vector 181 SmartHomeNetwork.smartLight2.wlan[0].mac packetDropDuplicateDetected:vector(packetBytes) ETV
attr interpolationmode none
attr recordingmode vector(packetBytes)
attr source packetDropReasonIsDuplicateDetected(packetDropped)
attr title "packet drops: duplicate detected, packetBytes"
vector 182 SmartHomeNetwork.smartLight2.wlan[0].mac packetDropOther:vector(packetBytes) ETV
attr interpolationmode none
attr recordingmode vector(packetBytes)
attr source packetDropReasonIsOther(packetDropped)
attr title "packet drops: other, packetBytes"
vector 183 SmartHomeNetwork.smartLight2.wlan[0].radio radioMode:vector ETV
attr interpolationmode sample-hold
attr recordingmode vector
attr source radioModeChanged
attr title "Radio mode"
vector 184 SmartHomeNetwork.smartLight2.wlan[0].radio receptionState:vector ETV
attr interpolationmode sample-hold
attr recordingmode vector
attr source receptionStateChanged
attr title "Radio reception state"
vector 185 SmartHomeNetwork.smartLight2.wlan[0].radio transmissionState:vector ETV
attr interpolationmode sample-hold
attr recordingmode vector
attr source transmissionStateChanged
attr title "Radio transmission state"
vector 186 SmartHomeNetwork.smartLight2.wlan[0].radio radioChannel:vector ETV
attr interpolationmode sample-hold
attr recordingmode vector
attr source radioChannelChanged
attr title "Radio channel"
vector 187 SmartHomeNetwork.smartLight2.wlan[0] packetDropInterfaceDown:vector(packetBytes) ETV
attr interpolationmode none
attr recordingmode vector(packetBytes)
attr source packetDropReasonIsInterfaceDown(packetDropped)
attr title "packet drops: interface down, packetBytes"
vector 188 SmartHomeNetwork.smartLight2.wlan[0] packetDropNoCarrier:vector(packetBytes) ETV
attr interpolationmode none
attr recordingmode vector(packetBytes)
attr source packetDropReasonIsNoCarrier(packetDropped)
attr title "packet drops: no carrier, packetBytes"
vector 189 SmartHomeNetwork.smartLight2.ipv4.ip packetDropAddressResolutionFailed:vector(packetBytes) ETV
attr interpolationmode none
attr recordingmode vector(packetBytes)
attr source packetDropReasonIsAddressResolutionFailed(packetDropped)
attr title "packet drop: address resolution failed, packetBytes"
vector 190 SmartHomeNetwork.smartLight2.ipv4.ip packetDropHopLimitReached:vector(packetBytes) ETV
attr interpolationmode none
attr recordingmode vector(packetBytes)
attr source packetDropReasonIsHopLimitReached(packetDropped)
attr title "packet drop: hop limit reached, packetBytes"
vector 191 SmartHomeNetwork.smartLight2.ipv4.ip packetDropForwardingDisabled:vector(packetBytes) ETV
attr interpolationmode none
attr recordingmode vector(packetBytes)
attr source packetDropReasonIsForwardingDisabled(packetDropped)
attr title "packet drop: forwarding disabled, packetBytes"
vector 192 SmartHomeNetwork.smartLight2.ipv4.ip packetDropNoInterfaceFound:vector(packetBytes) ETV
attr interpolationmode none
attr recordingmode vector(packetBytes)
attr source packetDropReasonIsNoInterfaceFound(packetDropped)
attr title "packet drop: no interface found, packetBytes"
vector 193 SmartHomeNetwork.smartLight2.ipv4.ip packetDropNoRouteFound:vector(packetBytes) ETV
attr interpolationmode none
attr recordingmode vector(packetBytes)
attr source packetDropReasonIsNoRouteFound(packetDropped)
attr title "packet drop: no route found, packetBytes"
vector 194 SmartHomeNetwork.smartLight2.ipv4.ip packetDropUndefined:vector(packetBytes) ETV
attr interpolationmode none
attr recordingmode vector(packetBytes)
attr source packetDropReasonIsUndefined(packetDropped)
attr title "packet drop: undefined, packetBytes"
vector 195 SmartHomeNetwork.smartLight2.ipv4.arp arpRequestSent:vector(packetBytes) ETV
attr recordingmode vector(packetBytes)
attr source arpRequestSent
attr title "ARP request sent, packetBytes"
vector 196 SmartHomeNetwork.smartLight2.ipv4.arp arpReplySent:vector(packetBytes) ETV
attr recordingmode vector(packetBytes)
attr source arpReplySent
attr title "ARP replies sent, packetBytes"
vector 197 SmartHomeNetwork.smartLight2.udp packetSent:vector(packetBytes) ETV
attr interpolationmode none
attr recordingmode vector(packetBytes)
attr source packetSent
attr title "packets sent, packetBytes"
vector 198 SmartHomeNetwork.smartLight2.udp packetReceived:vector(packetBytes) ETV
attr interpolationmode none
attr recordingmode vector(packetBytes)
attr source packetReceived
attr title "packets received, packetBytes"
vector 199 SmartHomeNetwork.smartLight2.udp passedUpPk:vector(count) ETV
attr interpolationmode none
attr recordingmode vector(count)
attr source packetSentToUpper
attr title "packets passed up, count"
vector 200 SmartHomeNetwork.smartLight2.udp droppedPkWrongPort:vector(count) ETV
attr interpolationmode none
attr recordingmode vector(count)
attr source packetDropReasonIsNoPortFound(packetDropped)
attr title "packets dropped (wrong port), count"
vector 201 SmartHomeNetwork.smartLight2.udp droppedPkBadChecksum:vector(count) ETV
attr interpolationmode none
attr recordingmode vector(count)
attr source packetDropReasonIsIncorrectlyReceived(packetDropped)
attr title "packets dropped (checksum error), count"
vector 202 SmartHomeNetwork.securityCamera1.lo[0].lo rcvdPkFromHl:vector(packetBytes) ETV
attr interpolationmode none
attr recordingmode vector(packetBytes)
attr source packetReceivedFromUpper
attr title "packets received from higher layer, packetBytes"
vector 203 SmartHomeNetwork.securityCamera1.lo[0].lo passedUpPk:vector(packetBytes) ETV
attr interpolationmode none
attr recordingmode vector(packetBytes)
attr source packetSentToUpper
attr title "packets passed to higher layer, packetBytes"
vector 204 SmartHomeNetwork.securityCamera1.lo[0] packetDropInterfaceDown:vector(packetBytes) ETV
attr interpolationmode none
attr recordingmode vector(packetBytes)
attr source packetDropReasonIsInterfaceDown(packetDropped)
attr title "packet drops: interface down, packetBytes"
vector 205 SmartHomeNetwork.securityCamera1.lo[0] packetDropNoCarrier:vector(packetBytes) ETV
attr interpolationmode none
attr recordingmode vector(packetBytes)
attr source packetDropReasonIsNoCarrier(packetDropped)
attr title "packet drops: no carrier, packetBytes"
vector 206 SmartHomeNetwork.securityCamera1.wlan[0].agent sentRequest:vector ETV
attr recordingmode vector
attr title "sent requests"
vector 207 SmartHomeNetwork.securityCamera1.wlan[0].agent acceptConfirm:vector ETV
attr recordingmode vector
attr title "accepted confirms"
vector 208 SmartHomeNetwork.securityCamera1.wlan[0].agent dropConfirm:vector ETV
attr recordingmode vector
attr title "dropped confirms"
vector 209 SmartHomeNetwork.securityCamera1.wlan[0].mac.dcf.channelAccess.pendingQueue queueLength:vector ETV
attr autoWarmupFilter false
attr interpolationmode sample-hold
attr recordingmode vector
attr source "warmup(atomic(constant0(packetPushEnded) + count(packetPushStarted) - count(packetPulled) - count(packetRemoved) - count(packetDropped)))"
attr title "queue length"
attr unit pk
vector 210 SmartHomeNetwork.securityCamera1.wlan[0].mac.dcf.channelAccess.pendingQueue queueBitLength:vector ETV
attr autoWarmupFilter false
attr interpolationmode sample-hold
attr recordingmode vector
attr source "warmup(atomic(constant0(packetPushEnded) + sum(packetLength(packetPushStarted)) - sum(packetLength(packetPulled)) - sum(packetLength(packetRemoved)) - sum(packetLength(packetDropped))))"
attr title "queue bit length"
attr unit b
vector 211 SmartHomeNetwork.securityCamera1.wlan[0].mac.dcf.channelAccess.pendingQueue queueingTime:vector ETV
attr interpolationmode none
attr recordingmode vector
attr source queueingTime(packetPulled)
attr title "queueing times"
attr unit s
vector 212 SmartHomeNetwork.securityCamera1.wlan[0].mac.dcf.channelAccess.pendingQueue incomingPacketLengths:vector ETV
attr interpolationmode none
attr recordingmode vector
attr source packetLength(packetPushStarted)
attr title "incoming packet lengths"
attr unit b
vector 213 SmartHomeNetwork.securityCamera1.wlan[0].mac.dcf.channelAccess.pendingQueue incomingDataRate:vector ETV
attr interpolationmode linear
attr recordingmode vector
attr source throughput(packetPushStarted)
attr title "incoming datarate"
attr unit bps
vector 214 SmartHomeNetwork.securityCamera1.wlan[0].mac.dcf.channelAccess.pendingQueue outgoingPacketLengths:vector ETV
attr interpolationmode none
attr recordingmode vector
attr source packetLength(packetPulled)
attr title "outgoing packet lengths"
attr unit b
vector 215 SmartHomeNetwork.securityCamera1.wlan[0].mac.dcf.channelAccess.pendingQueue outgoingDataRate:vector ETV
attr interpolationmode linear
attr recordingmode vector
attr source throughput(packetPulled)
attr title "outgoing datarate"
attr unit bps
vector 216 SmartHomeNetwork.securityCamera1.wlan[0].mac.dcf.channelAccess.pendingQueue droppedPacketLengthsQueueOverflow:vector ETV
attr interpolationmode none
attr recordingmode vector
attr source packetLength(packetDropReasonIsQueueOverflow(packetDropped))
attr title "dropped packet lengths: queue overflow"
attr unit b
vector 217 SmartHomeNetwork.securityCamera1.wlan[0].mac.dcf.channelAccess.pendingQueue flowQueueingTime:vector ETV
attr interpolationmode none
attr recordingmode vector
attr source queueingTime(demuxFlow(packetPulled))
attr title "flow queueing times"
attr unit s
vector 218 SmartHomeNetwork.securityCamera1.wlan[0].mac.dcf.channelAccess.pendingQueue flowIncomingDataRate:vector ETV
attr interpolationmode linear
attr recordingmode vector
attr source throughput(flowPacketLength(demuxFlow(packetPushStarted)))
attr title "flow specific incoming data rate"
attr unit bps
vector 219 SmartHomeNetwork.securityCamera1.wlan[0].mac.dcf.channelAccess.pendingQueue flowOutgoingDataRate:vector ETV
attr interpolationmode linear
attr recordingmode vector
attr source throughput(flowPacketLength(demuxFlow(packetPulled)))
attr title "flow specific outgoing data rate"
attr unit bps
vector 220 SmartHomeNetwork.securityCamera1.wlan[0].mac.dcf.channelAccess.inProgressFrames queueingTime:vector ETV
attr interpolationmode none
attr recordingmode vector
attr source queueingTime(packetDequeued)
attr title "queueing times"
vector 221 SmartHomeNetwork.securityCamera1.wlan[0].mac.dcf.channelAccess.inProgressFrames queueLength:vector ETV
attr autoWarmupFilter false
attr interpolationmode sample-hold
attr recordingmode vector
attr source "warmup(count(packetEnqueued) - count(packetDequeued))"
attr title "queue length"
vector 222 SmartHomeNetwork.securityCamera1.wlan[0].mac.dcf.channelAccess.contention backoffPeriodGenerated:vector ETV
attr interpolationmode none
attr recordingmode vector
attr title "backoff periods"
vector 223 SmartHomeNetwork.securityCamera1.wlan[0].mac.dcf.channelAccess.contention backoffActive:vector ETV
attr autoWarmupFilter false
attr interpolationmode sample-hold
attr recordingmode vector
attr source warmup(count(backoffStarted)-count(backoffStopped))
attr title "backoff active"
vector 224 SmartHomeNetwork.securityCamera1.wlan[0].mac.dcf.channelAccess.contention stateChanged:vector ETV
attr enum IDLE,DEFER,IFS_AND_BACKOFF
attr interpolationmode none
attr recordingmode vector
attr title "contention state changed"
attr type enum
vector 225 SmartHomeNetwork.securityCamera1.wlan[0].mac.dcf.recipientMacDataService packetDropDuplicateDetected:vector(packetBytes) ETV
attr interpolationmode none
attr recordingmode vector(packetBytes)
attr source packetDropReasonIsDuplicateDetected(packetDropped)
attr title "packet drops: duplicate detected, packetBytes"
vector 226 SmartHomeNetwork.securityCamera1.wlan[0].mac.dcf.recoveryProcedure contentionWindowChanged:vector ETV
attr interpolationmode sample-hold
attr recordingmode vector
attr title "contention window"
vector 227 SmartHomeNetwork.securityCamera1.wlan[0].mac.dcf packetSentToPeer:vector(packetBytes) ETV
attr interpolationmode none
attr recordingmode vector(packetBytes)
attr title "packets sent, packetBytes"
vector 228 SmartHomeNetwork.securityCamera1.wlan[0].mac.dcf packetSentToPeerUnicast:vector(packetBytes) ETV
attr interpolationmode none
attr recordingmode vector(packetBytes)
attr source ieee80211Unicast(packetSentToPeer)
attr title "packets sent: unicast, packetBytes"
vector 229 SmartHomeNetwork.securityCamera1.wlan[0].mac.dcf packetSentToPeerMulticast:vector(packetBytes) ETV
attr interpolationmode none
attr recordingmode vector(packetBytes)
attr source ieee80211Multicast(packetSentToPeer)
attr title "packets sent: multicast, packetBytes"
vector 230 SmartHomeNetwork.securityCamera1.wlan[0].mac.dcf packetSentToPeerBroadcast:vector(packetBytes) ETV
attr interpolationmode none
attr recordingmode vector(packetBytes)
attr source ieee80211Broadcast(packetSentToPeer)
attr title "packets sent: broadcast , packetBytes"
vector 231 SmartHomeNetwork.securityCamera1.wlan[0].mac.dcf packetSentToPeerWithRetry:vector(packetBytes) ETV
attr interpolationmode none
attr recordingmode vector(packetBytes)
attr source ieee80211Retry(packetSentToPeer)
attr title "packets sent: with retry, packetBytes"
vector 232 SmartHomeNetwork.securityCamera1.wlan[0].mac.dcf packetSentToPeerWithoutRetry:vector(packetBytes) ETV
attr interpolationmode none
attr recordingmode vector(packetBytes)
attr source ieee80211NotRetry(packetSentToPeer)
attr title "packets sent: without retry, packetBytes"
vector 233 SmartHomeNetwork.securityCamera1.wlan[0].mac.dcf packetReceivedFromPeer:vector(packetBytes) ETV
attr interpolationmode none
attr recordingmode vector(packetBytes)
attr title "packets received, packetBytes"
vector 234 SmartHomeNetwork.securityCamera1.wlan[0].mac.dcf packetReceivedFromPeerUnicast:vector(packetBytes) ETV
attr interpolationmode none
attr recordingmode vector(packetBytes)
attr source ieee80211Unicast(packetReceivedFromPeer)
attr title "packets received: unicast, packetBytes"
vector 235 SmartHomeNetwork.securityCamera1.wlan[0].mac.dcf packetReceivedFromPeerMulticast:vector(packetBytes) ETV
attr interpolationmode none
attr recordingmode vector(packetBytes)
attr source ieee80211Multicast(packetReceivedFromPeer)
attr title "packets received: multicast, packetBytes"
vector 236 SmartHomeNetwork.securityCamera1.wlan[0].mac.dcf packetReceivedFromPeerBroadcast:vector(packetBytes) ETV
attr interpolationmode none
attr recordingmode vector(packetBytes)
attr source ieee80211Broadcast(packetReceivedFromPeer)
attr title "packets received: broadcast, packetBytes"
vector 237 SmartHomeNetwork.securityCamera1.wlan[0].mac.dcf packetReceivedFromPeerWithRetry:vector(packetBytes) ETV
attr interpolationmode none
attr recordingmode vector(packetBytes)
attr source ieee80211Retry(packetReceivedFromPeer)
attr title "packets received: with retry, packetBytes"
vector 238 SmartHomeNetwork.securityCamera1.wlan[0].mac.dcf packetReceivedFromPeerWithoutRetry:vector(packetBytes) ETV
attr interpolationmode none
attr recordingmode vector(packetBytes)
attr source ieee80211NotRetry(packetReceivedFromPeer)
attr title "packets received: without retry, packetBytes"
vector 239 SmartHomeNetwork.securityCamera1.wlan[0].mac.dcf packetDrop:vector(packetBytes) ETV
attr interpolationmode none
attr recordingmode vector(packetBytes)
attr source packetDropped
attr title "packet drops, packetBytes"
vector 240 SmartHomeNetwork.securityCamera1.wlan[0].mac.dcf packetDropNotAddressedToUs:vector(packetBytes) ETV
attr interpolationmode none
attr recordingmode vector(packetBytes)
attr source packetDropReasonIsNotAddressedToUs(packetDropped)
attr title "packet drops: not addressed to us, packetBytes"
vector 241 SmartHomeNetwork.securityCamera1.wlan[0].mac.dcf packetDropQueueOverflow:vector(packetBytes) ETV
attr interpolationmode none
attr recordingmode vector(packetBytes)
attr source packetDropReasonIsQueueOverflow(packetDropped)
attr title "packet drops: queue overflow, packetBytes"
vector 242 SmartHomeNetwork.securityCamera1.wlan[0].mac.dcf packetDropRetryLimitReached:vector(packetBytes) ETV
attr interpolationmode none
attr recordingmode vector(packetBytes)
attr source packetDropReasonIsRetryLimitReached(packetDropped)
attr title "packet drops: retry limit reached, packetBytes"
vector 243 SmartHomeNetwork.securityCamera1.wlan[0].mac.dcf frameSequenceActive:vector ETV
attr autoWarmupFilter false
attr interpolationmode sample-hold
attr recordingmode vector
attr source warmup(count(frameSequenceStarted)-count(frameSequenceFinished))
attr title "frame sequence active"
vector 244 SmartHomeNetwork.securityCamera1.wlan[0].mac.dcf datarateSelected:vector ETV
attr interpolationmode none
attr recordingmode vector
attr title "datarates selected"
vector 245 SmartHomeNetwork.securityCamera1.wlan[0].mac.rx nav:vector ETV
attr interpolationmode linear
attr recordingmode vector
attr source navChanged
attr title "network allocation vector"
vector 246 SmartHomeNetwork.securityCamera1.wlan[0].mac packetSentToUpper:vector(packetBytes) ETV
attr interpolationmode none
attr recordingmode vector(packetBytes)
attr title "packets sent to upper layer, packetBytes"
vector 247 SmartHomeNetwork.securityCamera1.wlan[0].mac packetSentToLower:vector(packetBytes) ETV
attr interpolationmode none
attr recordingmode vector(packetBytes)
attr title "packets sent to lower layer, packetBytes"
vector 248 SmartHomeNetwork.securityCamera1.wlan[0].mac packetReceivedFromUpper:vector(packetBytes) ETV
attr interpolationmode none
attr recordingmode vector(packetBytes)
attr title "packets received from upper layer, packetBytes"
vector 249 SmartHomeNetwork.securityCamera1.wlan[0].mac packetReceivedFromLower:vector(packetBytes) ETV
attr interpolationmode none
attr recordingmode vector(packetBytes)
attr title "packets received from lower layer, packetBytes"
vector 250 SmartHomeNetwork.securityCamera1.wlan[0].mac packetDrop:vector(packetBytes) ETV
attr interpolationmode none
attr recordingmode vector(packetBytes)
attr source packetDropped
attr title "packet drops, packetBytes"
vector 251 SmartHomeNetwork.securityCamera1.wlan[0].mac packetDropIncorrectlyReceived:vector(packetBytes) ETV
attr interpolationmode none
attr recordingmode vector(packetBytes)
attr source packetDropReasonIsIncorrectlyReceived(packetDropped)
attr title "packet drops: incorrectly received, packetBytes"
vector 252 SmartHomeNetwork.securityCamera1.wlan[0].mac packetDropNotAddressedToUs:vector(packetBytes) ETV
attr interpolationmode none
attr recordingmode vector(packetBytes)
attr source packetDropReasonIsNotAddressedToUs(packetDropped)
attr title "packet drops: not addressed to us, packetBytes"
vector 253 SmartHomeNetwork.securityCamera1.wlan[0].mac packetDropQueueOverflow:vector(packetBytes) ETV
attr interpolationmode none
attr recordingmode vector(packetBytes)
attr source packetDropReasonIsQueueOverflow(packetDropped)
attr title "packet drops: queue overflow, packetBytes"
vector 254 SmartHomeNetwork.securityCamera1.wlan[0].mac packetDropRetryLimitReached:vector(packetBytes) ETV
attr interpolationmode none
attr recordingmode vector(packetBytes)
attr source packetDropReasonIsRetryLimitReached(packetDropped)
attr title "packet drops: retry limit reached, packetBytes"
vector 255 SmartHomeNetwork.securityCamera1.wlan[0].mac packetDropDuplicateDetected:vector(packetBytes) ETV
attr interpolationmode none
attr recordingmode vector(packetBytes)
attr source packetDropReasonIsDuplicateDetected(packetDropped)
attr title "packet drops: duplicate detected, packetBytes"
vector 256 SmartHomeNetwork.securityCamera1.wlan[0].mac packetDropOther:vector(packetBytes) ETV
attr interpolationmode none
attr recordingmode vector(packetBytes)
attr source packetDropReasonIsOther(packetDropped)
attr title "packet drops: other, packetBytes"
vector 257 SmartHomeNetwork.securityCamera1.wlan[0].radio radioMode:vector ETV
attr interpolationmode sample-hold
attr recordingmode vector
attr source radioModeChanged
attr title "Radio mode"
vector 258 SmartHomeNetwork.securityCamera1.wlan[0].radio receptionState:vector ETV
attr interpolationmode sample-hold
attr recordingmode vector
attr source receptionStateChanged
attr title "Radio reception state"
vector 259 SmartHomeNetwork.securityCamera1.wlan[0].radio transmissionState:vector ETV
attr interpolationmode sample-hold
attr recordingmode vector
attr source transmissionStateChanged
attr title "Radio transmission state"
vector 260 SmartHomeNetwork.securityCamera1.wlan[0].radio radioChannel:vector ETV
attr interpolationmode sample-hold
attr recordingmode vector
attr source radioChannelChanged
attr title "Radio channel"
vector 261 SmartHomeNetwork.securityCamera1.wlan[0] packetDropInterfaceDown:vector(packetBytes) ETV
attr interpolationmode none
attr recordingmode vector(packetBytes)
attr source packetDropReasonIsInterfaceDown(packetDropped)
attr title "packet drops: interface down, packetBytes"
vector 262 SmartHomeNetwork.securityCamera1.wlan[0] packetDropNoCarrier:vector(packetBytes) ETV
attr interpolationmode none
attr recordingmode vector(packetBytes)
attr source packetDropReasonIsNoCarrier(packetDropped)
attr title "packet drops: no carrier, packetBytes"
vector 263 SmartHomeNetwork.securityCamera1.ipv4.ip packetDropAddressResolutionFailed:vector(packetBytes) ETV
attr interpolationmode none
attr recordingmode vector(packetBytes)
attr source packetDropReasonIsAddressResolutionFailed(packetDropped)
attr title "packet drop: address resolution failed, packetBytes"
vector 264 SmartHomeNetwork.securityCamera1.ipv4.ip packetDropHopLimitReached:vector(packetBytes) ETV
attr interpolationmode none
attr recordingmode vector(packetBytes)
attr source packetDropReasonIsHopLimitReached(packetDropped)
attr title "packet drop: hop limit reached, packetBytes"
vector 265 SmartHomeNetwork.securityCamera1.ipv4.ip packetDropForwardingDisabled:vector(packetBytes) ETV
attr interpolationmode none
attr recordingmode vector(packetBytes)
attr source packetDropReasonIsForwardingDisabled(packetDropped)
attr title "packet drop: forwarding disabled, packetBytes"
vector 266 SmartHomeNetwork.securityCamera1.ipv4.ip packetDropNoInterfaceFound:vector(packetBytes) ETV
attr interpolationmode none
attr recordingmode vector(packetBytes)
attr source packetDropReasonIsNoInterfaceFound(packetDropped)
attr title "packet drop: no interface found, packetBytes"
vector 267 SmartHomeNetwork.securityCamera1.ipv4.ip packetDropNoRouteFound:vector(packetBytes) ETV
attr interpolationmode none
attr recordingmode vector(packetBytes)
attr source packetDropReasonIsNoRouteFound(packetDropped)
attr title "packet drop: no route found, packetBytes"
vector 268 SmartHomeNetwork.securityCamera1.ipv4.ip packetDropUndefined:vector(packetBytes) ETV
attr interpolationmode none
attr recordingmode vector(packetBytes)
attr source packetDropReasonIsUndefined(packetDropped)
attr title "packet drop: undefined, packetBytes"
vector 269 SmartHomeNetwork.securityCamera1.ipv4.arp arpRequestSent:vector(packetBytes) ETV
attr recordingmode vector(packetBytes)
attr source arpRequestSent
attr title "ARP request sent, packetBytes"
vector 270 SmartHomeNetwork.securityCamera1.ipv4.arp arpReplySent:vector(packetBytes) ETV
attr recordingmode vector(packetBytes)
attr source arpReplySent
attr title "ARP replies sent, packetBytes"
vector 271 SmartHomeNetwork.securityCamera1.udp packetSent:vector(packetBytes) ETV
attr interpolationmode none
attr recordingmode vector(packetBytes)
attr source packetSent
attr title "packets sent, packetBytes"
vector 272 SmartHomeNetwork.securityCamera1.udp packetReceived:vector(packetBytes) ETV
attr interpolationmode none
attr recordingmode vector(packetBytes)
attr source packetReceived
attr title "packets received, packetBytes"
vector 273 SmartHomeNetwork.securityCamera1.udp passedUpPk:vector(count) ETV
attr interpolationmode none
attr recordingmode vector(count)
attr source packetSentToUpper
attr title "packets passed up, count"
vector 274 SmartHomeNetwork.securityCamera1.udp droppedPkWrongPort:vector(count) ETV
attr interpolationmode none
attr recordingmode vector(count)
attr source packetDropReasonIsNoPortFound(packetDropped)
attr title "packets dropped (wrong port), count"
vector 275 SmartHomeNetwork.securityCamera1.udp droppedPkBadChecksum:vector(count) ETV
attr interpolationmode none
attr recordingmode vector(count)
attr source packetDropReasonIsIncorrectlyReceived(packetDropped)
attr title "packets dropped (checksum error), count"
vector 276 SmartHomeNetwork.securityCamera2.lo[0].lo rcvdPkFromHl:vector(packetBytes) ETV
attr interpolationmode none
attr recordingmode vector(packetBytes)
attr source packetReceivedFromUpper
attr title "packets received from higher layer, packetBytes"
vector 277 SmartHomeNetwork.securityCamera2.lo[0].lo passedUpPk:vector(packetBytes) ETV
attr interpolationmode none
attr recordingmode vector(packetBytes)
attr source packetSentToUpper
attr title "packets passed to higher layer, packetBytes"
vector 278 SmartHomeNetwork.securityCamera2.lo[0] packetDropInterfaceDown:vector(packetBytes) ETV
attr interpolationmode none
attr recordingmode vector(packetBytes)
attr source packetDropReasonIsInterfaceDown(packetDropped)
attr title "packet drops: interface down, packetBytes"
vector 279 SmartHomeNetwork.securityCamera2.lo[0] packetDropNoCarrier:vector(packetBytes) ETV
attr interpolationmode none
attr recordingmode vector(packetBytes)
attr source packetDropReasonIsNoCarrier(packetDropped)
attr title "packet drops: no carrier, packetBytes"
vector 280 SmartHomeNetwork.securityCamera2.wlan[0].agent sentRequest:vector ETV
attr recordingmode vector
attr title "sent requests"
vector 281 SmartHomeNetwork.securityCamera2.wlan[0].agent acceptConfirm:vector ETV
attr recordingmode vector
attr title "accepted confirms"
vector 282 SmartHomeNetwork.securityCamera2.wlan[0].agent dropConfirm:vector ETV
attr recordingmode vector
attr title "dropped confirms"
vector 283 SmartHomeNetwork.securityCamera2.wlan[0].mac.dcf.channelAccess.pendingQueue queueLength:vector ETV
attr autoWarmupFilter false
attr interpolationmode sample-hold
attr recordingmode vector
attr source "warmup(atomic(constant0(packetPushEnded) + count(packetPushStarted) - count(packetPulled) - count(packetRemoved) - count(packetDropped)))"
attr title "queue length"
attr unit pk
vector 284 SmartHomeNetwork.securityCamera2.wlan[0].mac.dcf.channelAccess.pendingQueue queueBitLength:vector ETV
attr autoWarmupFilter false
attr interpolationmode sample-hold
attr recordingmode vector
attr source "warmup(atomic(constant0(packetPushEnded) + sum(packetLength(packetPushStarted)) - sum(packetLength(packetPulled)) - sum(packetLength(packetRemoved)) - sum(packetLength(packetDropped))))"
attr title "queue bit length"
attr unit b
vector 285 SmartHomeNetwork.securityCamera2.wlan[0].mac.dcf.channelAccess.pendingQueue queueingTime:vector ETV
attr interpolationmode none
attr recordingmode vector
attr source queueingTime(packetPulled)
attr title "queueing times"
attr unit s
vector 286 SmartHomeNetwork.securityCamera2.wlan[0].mac.dcf.channelAccess.pendingQueue incomingPacketLengths:vector ETV
attr interpolationmode none
attr recordingmode vector
attr source packetLength(packetPushStarted)
attr title "incoming packet lengths"
attr unit b
vector 287 SmartHomeNetwork.securityCamera2.wlan[0].mac.dcf.channelAccess.pendingQueue incomingDataRate:vector ETV
attr interpolationmode linear
attr recordingmode vector
attr source throughput(packetPushStarted)
attr title "incoming datarate"
attr unit bps
vector 288 SmartHomeNetwork.securityCamera2.wlan[0].mac.dcf.channelAccess.pendingQueue outgoingPacketLengths:vector ETV
attr interpolationmode none
attr recordingmode vector
attr source packetLength(packetPulled)
attr title "outgoing packet lengths"
attr unit b
vector 289 SmartHomeNetwork.securityCamera2.wlan[0].mac.dcf.channelAccess.pendingQueue outgoingDataRate:vector ETV
attr interpolationmode linear
attr recordingmode vector
attr source throughput(packetPulled)
attr title "outgoing datarate"
attr unit bps
vector 290 SmartHomeNetwork.securityCamera2.wlan[0].mac.dcf.channelAccess.pendingQueue droppedPacketLengthsQueueOverflow:vector ETV
attr interpolationmode none
attr recordingmode vector
attr source packetLength(packetDropReasonIsQueueOverflow(packetDropped))
attr title "dropped packet lengths: queue overflow"
attr unit b
vector 291 SmartHomeNetwork.securityCamera2.wlan[0].mac.dcf.channelAccess.pendingQueue flowQueueingTime:vector ETV
attr interpolationmode none
attr recordingmode vector
attr source queueingTime(demuxFlow(packetPulled))
attr title "flow queueing times"
attr unit s
vector 292 SmartHomeNetwork.securityCamera2.wlan[0].mac.dcf.channelAccess.pendingQueue flowIncomingDataRate:vector ETV
attr interpolationmode linear
attr recordingmode vector
attr source throughput(flowPacketLength(demuxFlow(packetPushStarted)))
attr title "flow specific incoming data rate"
attr unit bps
[...]
481	1919	0.544214257723	0
481	1994	0.544820981949	1
481	1995	0.544820981949	2
481	2003	0.544854981949	1
481	2004	0.544854981949	0
481	2024	0.544964981949	1
481	2025	0.544964981949	2
481	2032	0.545006981949	1
481	2033	0.545006981949	0
481	2104	0.545753706175	1
481	2105	0.545753706175	2
481	2113	0.545787706175	1
481	2114	0.545787706175	0
482	0	0	0
482	139	0.143299533497	0
482	1797	0.543299533497	0
482	1982	0.544810981949	0
495	0	0	0
496	0	0	0
497	0	0	0
498	60	0.1	23040
498	277	0.2	113280
498	501	0.3	113280
498	719	0.4	113280
498	1197	0.482600525762	252008.08115893
498	1684	0.516940641306	570761.03820578
498	2195	0.667574362643	136277.5865709
498	2674	0.689423237298	940277.26024318
498	2961	0.789423237298	118240
498	2994	0.889423237298	23040
498	3027	0.989423237298	23040
498	3060	1.089423237298	23040
498	3093	1.189423237298	23040
498	3126	1.289423237298	23040
498	3159	1.389423237298	23040
498	3192	1.489423237298	23040
498	3225	1.589423237298	23040
498	3258	1.689423237298	23040
498	3291	1.789423237298	23040
498	3324	1.889423237298	23040
498	3357	1.989423237298	23040
498	3390	2.089423237298	23040
498	3423	2.189423237298	23040
498	3456	2.289423237298	23040
498	3489	2.389423237298	23040
498	3522	2.489423237298	23040
498	3555	2.589423237298	23040
498	3588	2.689423237298	23040
498	3621	2.789423237298	23040
498	3654	2.889423237298	23040
498	3687	2.989423237298	23040
498	3720	3.089423237298	23040
498	3753	3.189423237298	23040
498	3786	3.289423237298	23040
498	3819	3.389423237298	23040
498	3852	3.489423237298	23040
498	3885	3.589423237298	23040
498	3918	3.689423237298	23040
498	3951	3.789423237298	23040
498	3984	3.889423237298	23040
498	4017	3.989423237298	23040
498	4050	4.089423237298	23040
498	4083	4.189423237298	23040
498	4116	4.289423237298	23040
498	4149	4.389423237298	23040
498	4182	4.489423237298	23040
498	4215	4.589423237298	23040
498	4248	4.689423237298	23040
498	4281	4.789423237298	23040
498	4314	4.889423237298	23040
498	4347	4.989423237298	23040
498	4380	5.089423237298	23040
498	4413	5.189423237298	23040
498	4446	5.289423237298	23040
498	4479	5.389423237298	23040
498	4512	5.489423237298	23040
498	4545	5.589423237298	23040
498	4578	5.689423237298	23040
498	4611	5.789423237298	23040
498	4644	5.889423237298	23040
498	4677	5.989423237298	23040
498	4710	6.089423237298	23040
498	4743	6.189423237298	23040
498	4776	6.289423237298	23040
498	4809	6.389423237298	23040
498	4842	6.489423237298	23040
498	4875	6.589423237298	23040
498	4908	6.689423237298	23040
498	4941	6.789423237298	23040
498	4974	6.889423237298	23040
498	5007	6.989423237298	23040
498	5040	7.089423237298	23040
498	5073	7.189423237298	23040
498	5106	7.289423237298	23040
498	5139	7.389423237298	23040
498	5172	7.489423237298	23040
498	5205	7.589423237298	23040
498	5238	7.689423237298	23040
498	5271	7.789423237298	23040
498	5304	7.889423237298	23040
498	5337	7.989423237298	23040
498	5370	8.089423237298	23040
498	5403	8.189423237298	23040
498	5436	8.289423237298	23040
498	5469	8.389423237298	23040
498	5502	8.489423237298	23040
498	5535	8.589423237298	23040
498	5568	8.689423237298	23040
498	5601	8.789423237298	23040
498	5634	8.889423237298	23040
498	5667	8.989423237298	23040
498	5700	9.089423237298	23040
498	5733	9.189423237298	23040
498	5766	9.289423237298	23040
498	5799	9.389423237298	23040
498	5832	9.489423237298	23040
498	5865	9.589423237298	23040
498	5898	9.689423237298	23040
498	5931	9.789423237298	23040
498	5964	9.889423237298	23040
498	5997	9.989423237298	23040
498	6030	10.089423237298	23040
498	6063	10.189423237298	23040
498	6096	10.289423237298	23040
498	6129	10.389423237298	23040
498	6162	10.489423237298	23040
498	6195	10.589423237298	23040
498	6228	10.689423237298	23040
498	6261	10.789423237298	23040
498	6294	10.889423237298	23040
498	6327	10.989423237298	23040
498	6360	11.089423237298	23040
498	6393	11.189423237298	23040
498	6426	11.289423237298	23040
498	6459	11.389423237298	23040
498	6492	11.489423237298	23040
498	6525	11.589423237298	23040
498	6558	11.689423237298	23040
498	6591	11.789423237298	23040
498	6624	11.889423237298	23040
498	6657	11.989423237298	23040
498	6690	12.089423237298	23040
498	6723	12.189423237298	23040
498	6756	12.289423237298	23040
498	6789	12.389423237298	23040
498	6822	12.489423237298	23040
498	6855	12.589423237298	23040
498	6888	12.689423237298	23040
498	6921	12.789423237298	23040
498	6954	12.889423237298	23040
498	6987	12.989423237298	23040
498	7020	13.089423237298	23040
498	7053	13.189423237298	23040
498	7086	13.289423237298	23040
498	7119	13.389423237298	23040
498	7152	13.489423237298	23040
498	7185	13.589423237298	23040
498	7218	13.689423237298	23040
498	7251	13.789423237298	23040
498	7284	13.889423237298	23040
498	7317	13.989423237298	23040
498	7350	14.089423237298	23040
498	7383	14.189423237298	23040
498	7416	14.289423237298	23040
498	7449	14.389423237298	23040
498	7482	14.489423237298	23040
498	7515	14.589423237298	23040
498	7548	14.689423237298	23040
498	7581	14.789423237298	23040
498	7614	14.889423237298	23040
498	7647	14.989423237298	23040
498	7680	15.089423237298	23040
498	7713	15.189423237298	23040
498	7746	15.289423237298	23040
498	7779	15.389423237298	23040
498	7812	15.489423237298	23040
498	7845	15.589423237298	23040
498	7878	15.689423237298	23040
498	7911	15.789423237298	23040
498	7944	15.889423237298	23040
498	7977	15.989423237298	23040
498	8010	16.089423237298	23040
498	8043	16.189423237298	23040
498	8076	16.289423237298	23040
498	8109	16.389423237298	23040
498	8142	16.489423237298	23040
498	8175	16.589423237298	23040
498	8208	16.689423237298	23040
498	8241	16.789423237298	23040
498	8274	16.889423237298	23040
498	8307	16.989423237298	23040
498	8340	17.089423237298	23040
498	8373	17.189423237298	23040
498	8406	17.289423237298	23040
498	8439	17.389423237298	23040
498	8472	17.489423237298	23040
498	8505	17.589423237298	23040
498	8538	17.689423237298	23040
498	8571	17.789423237298	23040
498	8604	17.889423237298	23040
498	8637	17.989423237298	23040
498	8670	18.089423237298	23040
498	8703	18.189423237298	23040
498	8736	18.289423237298	23040
498	8769	18.389423237298	23040
498	8802	18.489423237298	23040
498	8835	18.589423237298	23040
498	8868	18.689423237298	23040
498	8901	18.789423237298	23040
498	8934	18.889423237298	23040
498	8967	18.989423237298	23040
498	9000	19.089423237298	23040
498	9033	19.189423237298	23040
498	9066	19.289423237298	23040
498	9099	19.389423237298	23040
498	9132	19.489423237298	23040
498	9165	19.589423237298	23040
498	9198	19.689423237298	23040
498	9231	19.789423237298	23040
498	9264	19.889423237298	23040
498	9297	19.989423237298	23040
498	9330	20.089423237298	23040
498	9363	20.189423237298	23040
498	9396	20.289423237298	23040
498	9429	20.389423237298	23040
498	9462	20.489423237298	23040
498	9495	20.589423237298	23040
498	9528	20.689423237298	23040
498	9561	20.789423237298	23040
498	9594	20.889423237298	23040
498	9627	20.989423237298	23040
498	9660	21.089423237298	23040
498	9693	21.189423237298	23040
498	9726	21.289423237298	23040
498	9759	21.389423237298	23040
498	9792	21.489423237298	23040
498	9825	21.589423237298	23040
498	9858	21.689423237298	23040
498	9891	21.789423237298	23040
498	9924	21.889423237298	23040
498	9957	21.989423237298	23040
498	9990	22.089423237298	23040
498	10023	22.189423237298	23040
498	10056	22.289423237298	23040
498	10089	22.389423237298	23040
498	10122	22.489423237298	23040
498	10155	22.589423237298	23040
498	10188	22.689423237298	23040
498	10221	22.789423237298	23040
498	10254	22.889423237298	23040
498	10287	22.989423237298	23040
498	10320	23.089423237298	23040
498	10353	23.189423237298	23040
498	10386	23.289423237298	23040
498	10419	23.389423237298	23040
498	10452	23.489423237298	23040
498	10485	23.589423237298	23040
498	10518	23.689423237298	23040
498	10551	23.789423237298	23040
498	10584	23.889423237298	23040
498	10617	23.989423237298	23040
498	10650	24.089423237298	23040
498	10683	24.189423237298	23040
498	10716	24.289423237298	23040
498	10749	24.389423237298	23040
498	10782	24.489423237298	23040
498	10815	24.589423237298	23040
498	10848	24.689423237298	23040
498	10881	24.789423237298	23040
498	10914	24.889423237298	23040
498	10947	24.989423237298	23040
498	10980	25.089423237298	23040
498	11013	25.189423237298	23040
498	11046	25.289423237298	23040
498	11079	25.389423237298	23040
498	11112	25.489423237298	23040
498	11145	25.589423237298	23040
498	11178	25.689423237298	23040
498	11211	25.789423237298	23040
498	11244	25.889423237298	23040
498	11277	25.989423237298	23040
498	11310	26.089423237298	23040
498	11343	26.189423237298	23040
498	11376	26.289423237298	23040
498	11409	26.389423237298	23040
498	11442	26.489423237298	23040
498	11475	26.589423237298	23040
498	11508	26.689423237298	23040
498	11541	26.789423237298	23040
498	11574	26.889423237298	23040
498	11607	26.989423237298	23040
498	11640	27.089423237298	23040
498	11673	27.189423237298	23040
498	11706	27.289423237298	23040
498	11739	27.389423237298	23040
498	11772	27.489423237298	23040
498	11805	27.589423237298	23040
498	11838	27.689423237298	23040
498	11871	27.789423237298	23040
498	11904	27.889423237298	23040
498	11937	27.989423237298	23040
498	11970	28.089423237298	23040
498	12003	28.189423237298	23040
498	12036	28.289423237298	23040
498	12069	28.389423237298	23040
498	12102	28.489423237298	23040
498	12135	28.589423237298	23040
498	12168	28.689423237298	23040
498	12201	28.789423237298	23040
498	12234	28.889423237298	23040
498	12267	28.989423237298	23040
498	12300	29.089423237298	23040
498	12333	29.189423237298	23040
498	12366	29.289423237298	23040
498	12399	29.389423237298	23040
498	12432	29.489423237298	23040
498	12465	29.589423237298	23040
498	12498	29.689423237298	23040
498	12531	29.789423237298	23040
498	12564	29.889423237298	23040
498	12597	29.989423237298	23040
498	12630	30.089423237298	23040
498	12663	30.189423237298	23040
498	12696	30.289423237298	23040
498	12729	30.389423237298	23040
498	12762	30.489423237298	23040
498	12795	30.589423237298	23040
498	12828	30.689423237298	23040
498	12861	30.789423237298	23040
498	12894	30.889423237298	23040
498	12927	30.989423237298	23040
498	12960	31.089423237298	23040
498	12993	31.189423237298	23040
498	13026	31.289423237298	23040
498	13059	31.389423237298	23040
498	13092	31.489423237298	23040
498	13125	31.589423237298	23040
498	13158	31.689423237298	23040
498	13191	31.789423237298	23040
498	13224	31.889423237298	23040
498	13257	31.989423237298	23040
498	13290	32.089423237298	23040
498	13323	32.189423237298	23040
498	13356	32.289423237298	23040
498	13389	32.389423237298	23040
498	13422	32.489423237298	23040
498	13455	32.589423237298	23040
498	13488	32.689423237298	23040
498	13521	32.789423237298	23040
498	13554	32.889423237298	23040
498	13587	32.989423237298	23040
498	13620	33.089423237298	23040
498	13653	33.189423237298	23040
498	13686	33.289423237298	23040
498	13719	33.389423237298	23040
498	13752	33.489423237298	23040
498	13785	33.589423237298	23040
498	13818	33.689423237298	23040
498	13851	33.789423237298	23040
498	13884	33.889423237298	23040
498	13917	33.989423237298	23040
498	13950	34.089423237298	23040
498	13983	34.189423237298	23040
498	14016	34.289423237298	23040
498	14049	34.389423237298	23040
498	14082	34.489423237298	23040
498	14115	34.589423237298	23040
498	14148	34.689423237298	23040
498	14181	34.789423237298	23040
498	14214	34.889423237298	23040
498	14247	34.989423237298	23040
498	14280	35.089423237298	23040
498	14313	35.189423237298	23040
498	14346	35.289423237298	23040
498	14379	35.389423237298	23040
498	14412	35.489423237298	23040
498	14445	35.589423237298	23040
498	14478	35.689423237298	23040
498	14511	35.789423237298	23040
498	14544	35.889423237298	23040
498	14577	35.989423237298	23040
498	14610	36.089423237298	23040
498	14643	36.189423237298	23040
498	14676	36.289423237298	23040
498	14709	36.389423237298	23040
498	14742	36.489423237298	23040
498	14775	36.589423237298	23040
498	14808	36.689423237298	23040
498	14841	36.789423237298	23040
498	14874	36.889423237298	23040
498	14907	36.989423237298	23040
498	14940	37.089423237298	23040
498	14973	37.189423237298	23040
498	15006	37.289423237298	23040
498	15039	37.389423237298	23040
498	15072	37.489423237298	23040
498	15105	37.589423237298	23040
498	15138	37.689423237298	23040
498	15171	37.789423237298	23040
498	15204	37.889423237298	23040
498	15237	37.989423237298	23040
498	15270	38.089423237298	23040
498	15303	38.189423237298	23040
498	15336	38.289423237298	23040
498	15369	38.389423237298	23040
498	15402	38.489423237298	23040
498	15435	38.589423237298	23040
498	15468	38.689423237298	23040
498	15501	38.789423237298	23040
498	15534	38.889423237298	23040
498	15567	38.989423237298	23040
498	15600	39.089423237298	23040
498	15633	39.189423237298	23040
498	15666	39.289423237298	23040
498	15699	39.389423237298	23040
498	15732	39.489423237298	23040
498	15765	39.589423237298	23040
498	15798	39.689423237298	23040
498	15831	39.789423237298	23040
498	15864	39.889423237298	23040
498	15897	39.989423237298	23040
498	15930	40.089423237298	23040
498	15963	40.189423237298	23040
498	15996	40.289423237298	23040
498	16029	40.389423237298	23040
498	16062	40.489423237298	23040
498	16095	40.589423237298	23040
498	16128	40.689423237298	23040
498	16161	40.789423237298	23040
498	16194	40.889423237298	23040
498	16227	40.989423237298	23040
498	16260	41.089423237298	23040
498	16293	41.189423237298	23040
498	16326	41.289423237298	23040
498	16359	41.389423237298	23040
498	16392	41.489423237298	23040
498	16425	41.589423237298	23040
498	16458	41.689423237298	23040
498	16491	41.789423237298	23040
498	16524	41.889423237298	23040
498	16557	41.989423237298	23040
498	16590	42.089423237298	23040
498	16623	42.189423237298	23040
498	16656	42.289423237298	23040
498	16689	42.389423237298	23040
498	16722	42.489423237298	23040
498	16755	42.589423237298	23040
498	16788	42.689423237298	23040
498	16821	42.789423237298	23040
498	16854	42.889423237298	23040
498	16887	42.989423237298	23040
498	16920	43.089423237298	23040
498	16953	43.189423237298	23040
498	16986	43.289423237298	23040
498	17019	43.389423237298	23040
498	17052	43.489423237298	23040
498	17085	43.589423237298	23040
498	17118	43.689423237298	23040
498	17151	43.789423237298	23040
498	17184	43.889423237298	23040
498	17217	43.989423237298	23040
498	17250	44.089423237298	23040
498	17283	44.189423237298	23040
498	17316	44.289423237298	23040
498	17349	44.389423237298	23040
498	17382	44.489423237298	23040
498	17415	44.589423237298	23040
498	17448	44.689423237298	23040
498	17481	44.789423237298	23040
498	17514	44.889423237298	23040
498	17547	44.989423237298	23040
498	17580	45.089423237298	23040
498	17613	45.189423237298	23040
498	17646	45.289423237298	23040
498	17679	45.389423237298	23040
498	17712	45.489423237298	23040
498	17745	45.589423237298	23040
498	17778	45.689423237298	23040
498	17811	45.789423237298	23040
498	17844	45.889423237298	23040
498	17877	45.989423237298	23040
498	17910	46.089423237298	23040
498	17943	46.189423237298	23040
498	17976	46.289423237298	23040
498	18009	46.389423237298	23040
498	18042	46.489423237298	23040
498	18075	46.589423237298	23040
498	18108	46.689423237298	23040
498	18141	46.789423237298	23040
498	18174	46.889423237298	23040
498	18207	46.989423237298	23040
498	18240	47.089423237298	23040
498	18273	47.189423237298	23040
498	18306	47.289423237298	23040
498	18339	47.389423237298	23040
498	18372	47.489423237298	23040
498	18405	47.589423237298	23040
498	18438	47.689423237298	23040
498	18471	47.789423237298	23040
498	18504	47.889423237298	23040
498	18537	47.989423237298	23040
498	18570	48.089423237298	23040
498	18603	48.189423237298	23040
498	18636	48.289423237298	23040
498	18669	48.389423237298	23040
498	18702	48.489423237298	23040
498	18735	48.589423237298	23040
498	18768	48.689423237298	23040
498	18801	48.789423237298	23040
498	18834	48.889423237298	23040
498	18867	48.989423237298	23040
498	18900	49.089423237298	23040
498	18933	49.189423237298	23040
498	18966	49.289423237298	23040
498	18999	49.389423237298	23040
498	19032	49.489423237298	23040
498	19065	49.589423237298	23040
498	19098	49.689423237298	23040
498	19131	49.789423237298	23040
498	19164	49.889423237298	23040
498	19197	49.989423237298	23040
498	19230	50.089423237298	23040
498	19263	50.189423237298	23040
498	19296	50.289423237298	23040
498	19329	50.389423237298	23040
498	19362	50.489423237298	23040
498	19395	50.589423237298	23040
498	19428	50.689423237298	23040
498	19461	50.789423237298	23040
498	19494	50.889423237298	23040
498	19527	50.989423237298	23040
498	19560	51.089423237298	23040
498	19593	51.189423237298	23040
498	19626	51.289423237298	23040
498	19659	51.389423237298	23040
498	19692	51.489423237298	23040
498	19725	51.589423237298	23040
498	19758	51.689423237298	23040
498	19791	51.789423237298	23040
498	19824	51.889423237298	23040
498	19857	51.989423237298	23040
498	19890	52.089423237298	23040
498	19923	52.189423237298	23040
498	19956	52.289423237298	23040
498	19989	52.389423237298	23040
498	20022	52.489423237298	23040
498	20055	52.589423237298	23040
498	20088	52.689423237298	23040
498	20121	52.789423237298	23040
498	20154	52.889423237298	23040
498	20187	52.989423237298	23040
498	20220	53.089423237298	23040
498	20253	53.189423237298	23040
498	20286	53.289423237298	23040
498	20319	53.389423237298	23040
498	20352	53.489423237298	23040
498	20385	53.589423237298	23040
498	20418	53.689423237298	23040
498	20451	53.789423237298	23040
498	20484	53.889423237298	23040
498	20517	53.989423237298	23040
498	20550	54.089423237298	23040
498	20583	54.189423237298	23040
498	20616	54.289423237298	23040
498	20649	54.389423237298	23040
498	20682	54.489423237298	23040
498	20715	54.589423237298	23040
498	20748	54.689423237298	23040
498	20781	54.789423237298	23040
498	20814	54.889423237298	23040
498	20847	54.989423237298	23040
498	20880	55.089423237298	23040
498	20913	55.189423237298	23040
498	20946	55.289423237298	23040
498	20979	55.389423237298	23040
498	21012	55.489423237298	23040
498	21045	55.589423237298	23040
498	21078	55.689423237298	23040
498	21111	55.789423237298	23040
498	21144	55.889423237298	23040
498	21177	55.989423237298	23040
498	21210	56.089423237298	23040
498	21243	56.189423237298	23040
498	21276	56.289423237298	23040
498	21309	56.389423237298	23040
498	21342	56.489423237298	23040
498	21375	56.589423237298	23040
498	21408	56.689423237298	23040
498	21441	56.789423237298	23040
498	21474	56.889423237298	23040
498	21507	56.989423237298	23040
498	21540	57.089423237298	23040
498	21573	57.189423237298	23040
498	21606	57.289423237298	23040
498	21639	57.389423237298	23040
498	21672	57.489423237298	23040
498	21705	57.589423237298	23040
498	21738	57.689423237298	23040
498	21771	57.789423237298	23040
498	21804	57.889423237298	23040
498	21837	57.989423237298	23040
498	21870	58.089423237298	23040
498	21903	58.189423237298	23040
498	21936	58.289423237298	23040
498	21969	58.389423237298	23040
498	22002	58.489423237298	23040
498	22035	58.589423237298	23040
498	22068	58.689423237298	23040
498	22101	58.789423237298	23040
498	22134	58.889423237298	23040
498	22167	58.989423237298	23040
498	22200	59.089423237298	23040
498	22233	59.189423237298	23040
498	22266	59.289423237298	23040
498	22299	59.389423237298	23040
498	22332	59.489423237298	23040
498	22365	59.589423237298	23040
498	22398	59.689423237298	23040
498	22431	59.789423237298	23040
498	22464	59.889423237298	23040
498	22483	59.989423237298	23040
498	22483	60	0

