file 2305376 1734835605                                         
version 3
run General-0-20241222-09:46:38-104748
attr configname General
attr datetime 20241222-09:46:38
attr datetimef 20241222-094638
attr experiment General
attr inifile omnetpp.ini
attr iterationvars ""
attr iterationvarsd ""
attr iterationvarsf ""
attr measurement ""
attr network SmartHomeNetwork
attr processid 104748
attr repetition 0
attr replication #0
attr resultdir results
attr runnumber 0
attr seedset 0
config image-path ../../inet4.5/images
config network SmartHomeNetwork
config sim-time-limit 60s
config ..ipv4.arp.typename GlobalArp
config .accessPoint.wlan[].radio.transmitter.power 100mW
config ..wlan[*].radio.receiver.sensitivity -85dBm
config ..wlan[*].bitrate 10Mbps
config ..mobility.typename StationaryMobility
config ..mobility.initFromDisplayString false
config ..numApps 1
config ..app[0].typename UdpBasicApp
config ..app[0].destPort 5000
config ..app[0].messageLength 1000B
config ..app[0].sendInterval exponential(100ms)
config .accessPoint.wlan[].mgmt.typename Ieee80211MgmtApSimplified
config .accessPoint.wlan[].agent.typename ""
config ..wlan[*].agent.typename ""
config ..wlan[*].mgmt.typename Ieee80211MgmtStaSimplified
config ..wlan[*].mac.typename Ieee80211Mac
config ..wlan[*].mac.dcf.channelAccess.cwMin 7
config ..wlan[*].mac.dcf.channelAccess.cwMax 1023
config ..wlan[*].mac.dcf.channelAccess.aifsn 2
config ..wlan[*].mac.retryLimit 7
config ..wlan[*].radio.typename Ieee80211ScalarRadio
config ..wlan[*].radio.bandName "\"2.4 GHz\""
config ..wlan[*].radio.channelNumber 1
config ..wlan[*].radio.transmitter.typename Ieee80211ScalarTransmitter
config ..wlan[*].radio.receiver.typename Ieee80211ScalarReceiver
config .visualizer..mobilityVisualizer.displayMovementTrails true
config .visualizer..mobilityVisualizer.displayOrientations true
config .visualizer..mobilityVisualizer.displayVelocities true
config **.wlan[0].radio.displayCommunicationRange true
config *.visualizer.sceneVisualizer.descriptionFigure "\"title\""
config *.visualizer.mediumVisualizer.displaySignals true
config *.visualizer.physicalLinkVisualizer.displayLinks true
config *.visualizer.obstaclesVisualizer.displayObstacles true
config *.visualizer.signalVisualizer.displaySignals true
config **.app[0].recordStatistics true
config **.ipv4.recordStatistics true
config **.scalar-recording true
config *.radioMedium.obstacleLoss.typename DielectricObstacleLoss
config **.mobility.initialZ 1.7m
config **.wlan[0].radio.transmitter.communicationRange 50m
config **.wlan[0].typename Ieee80211Interface
config **.wlan[0].radio.typename Ieee80211Radio
config **.wlan[0].mac.typename Ieee80211Mac
config **.wlan[0].mibModule "\"Ieee80211Mib\""
config **.wlan[0].mac.ackTimeout 1ms
config **.wlan[0].queue.typename DropTailQueue
config **.wlan[0].queue.packetCapacity -1
config **.wlan[0].mac.useAck true
config *.smartLight2.app[0].destAddresses "\"accessPoint\""
config *.host[*].wlan[0].radio.transmitter.txPower 20mW
config *.host[*].wlan[0].radio.receiver.sensitivity -5dBm
config *.host[*].wlan[0].radio.phy.analogModel.pathLossModel "\"FreeSpacePathLoss\""

vector 0 SmartHomeNetwork.accessPoint.wlan[0].mac.dcf.channelAccess.pendingQueue queueLength:vector ETV
attr autoWarmupFilter false
attr interpolationmode sample-hold
attr recordingmode vector
attr source "warmup(atomic(constant0(packetPushEnded) + count(packetPushStarted) - count(packetPulled) - count(packetRemoved) - count(packetDropped)))"
attr title "queue length"
attr unit pk
vector 1 SmartHomeNetwork.accessPoint.wlan[0].mac.dcf.channelAccess.pendingQueue queueBitLength:vector ETV
attr autoWarmupFilter false
attr interpolationmode sample-hold
attr recordingmode vector
attr source "warmup(atomic(constant0(packetPushEnded) + sum(packetLength(packetPushStarted)) - sum(packetLength(packetPulled)) - sum(packetLength(packetRemoved)) - sum(packetLength(packetDropped))))"
attr title "queue bit length"
attr unit b
vector 2 SmartHomeNetwork.accessPoint.wlan[0].mac.dcf.channelAccess.pendingQueue queueingTime:vector ETV
attr interpolationmode none
attr recordingmode vector
attr source queueingTime(packetPulled)
attr title "queueing times"
attr unit s
vector 3 SmartHomeNetwork.accessPoint.wlan[0].mac.dcf.channelAccess.pendingQueue incomingPacketLengths:vector ETV
attr interpolationmode none
attr recordingmode vector
attr source packetLength(packetPushStarted)
attr title "incoming packet lengths"
attr unit b
vector 4 SmartHomeNetwork.accessPoint.wlan[0].mac.dcf.channelAccess.pendingQueue incomingDataRate:vector ETV
attr interpolationmode linear
attr recordingmode vector
attr source throughput(packetPushStarted)
attr title "incoming datarate"
attr unit bps
vector 5 SmartHomeNetwork.accessPoint.wlan[0].mac.dcf.channelAccess.pendingQueue outgoingPacketLengths:vector ETV
attr interpolationmode none
attr recordingmode vector
attr source packetLength(packetPulled)
attr title "outgoing packet lengths"
attr unit b
vector 6 SmartHomeNetwork.accessPoint.wlan[0].mac.dcf.channelAccess.pendingQueue outgoingDataRate:vector ETV
attr interpolationmode linear
attr recordingmode vector
attr source throughput(packetPulled)
attr title "outgoing datarate"
attr unit bps
vector 7 SmartHomeNetwork.accessPoint.wlan[0].mac.dcf.channelAccess.pendingQueue droppedPacketLengthsQueueOverflow:vector ETV
attr interpolationmode none
attr recordingmode vector
attr source packetLength(packetDropReasonIsQueueOverflow(packetDropped))
attr title "dropped packet lengths: queue overflow"
attr unit b
vector 8 SmartHomeNetwork.accessPoint.wlan[0].mac.dcf.channelAccess.pendingQueue flowQueueingTime:vector ETV
attr interpolationmode none
attr recordingmode vector
attr source queueingTime(demuxFlow(packetPulled))
attr title "flow queueing times"
attr unit s
vector 9 SmartHomeNetwork.accessPoint.wlan[0].mac.dcf.channelAccess.pendingQueue flowIncomingDataRate:vector ETV
attr interpolationmode linear
attr recordingmode vector
attr source throughput(flowPacketLength(demuxFlow(packetPushStarted)))
attr title "flow specific incoming data rate"
attr unit bps
vector 10 SmartHomeNetwork.accessPoint.wlan[0].mac.dcf.channelAccess.pendingQueue flowOutgoingDataRate:vector ETV
attr interpolationmode linear
attr recordingmode vector
attr source throughput(flowPacketLength(demuxFlow(packetPulled)))
attr title "flow specific outgoing data rate"
attr unit bps
vector 11 SmartHomeNetwork.accessPoint.wlan[0].mac.dcf.channelAccess.inProgressFrames queueingTime:vector ETV
attr interpolationmode none
attr recordingmode vector
attr source queueingTime(packetDequeued)
attr title "queueing times"
vector 12 SmartHomeNetwork.accessPoint.wlan[0].mac.dcf.channelAccess.inProgressFrames queueLength:vector ETV
attr autoWarmupFilter false
attr interpolationmode sample-hold
attr recordingmode vector
attr source "warmup(count(packetEnqueued) - count(packetDequeued))"
attr title "queue length"
vector 13 SmartHomeNetwork.accessPoint.wlan[0].mac.dcf.channelAccess.contention backoffPeriodGenerated:vector ETV
attr interpolationmode none
attr recordingmode vector
attr title "backoff periods"
vector 14 SmartHomeNetwork.accessPoint.wlan[0].mac.dcf.channelAccess.contention backoffActive:vector ETV
attr autoWarmupFilter false
attr interpolationmode sample-hold
attr recordingmode vector
attr source warmup(count(backoffStarted)-count(backoffStopped))
attr title "backoff active"
vector 15 SmartHomeNetwork.accessPoint.wlan[0].mac.dcf.channelAccess.contention stateChanged:vector ETV
attr enum IDLE,DEFER,IFS_AND_BACKOFF
attr interpolationmode none
attr recordingmode vector
attr title "contention state changed"
attr type enum
vector 16 SmartHomeNetwork.accessPoint.wlan[0].mac.dcf.recipientMacDataService packetDropDuplicateDetected:vector(packetBytes) ETV
attr interpolationmode none
attr recordingmode vector(packetBytes)
attr source packetDropReasonIsDuplicateDetected(packetDropped)
attr title "packet drops: duplicate detected, packetBytes"
vector 17 SmartHomeNetwork.accessPoint.wlan[0].mac.dcf.recoveryProcedure contentionWindowChanged:vector ETV
attr interpolationmode sample-hold
attr recordingmode vector
attr title "contention window"
vector 18 SmartHomeNetwork.accessPoint.wlan[0].mac.dcf packetSentToPeer:vector(packetBytes) ETV
attr interpolationmode none
attr recordingmode vector(packetBytes)
attr title "packets sent, packetBytes"
vector 19 SmartHomeNetwork.accessPoint.wlan[0].mac.dcf packetSentToPeerUnicast:vector(packetBytes) ETV
attr interpolationmode none
attr recordingmode vector(packetBytes)
attr source ieee80211Unicast(packetSentToPeer)
attr title "packets sent: unicast, packetBytes"
vector 20 SmartHomeNetwork.accessPoint.wlan[0].mac.dcf packetSentToPeerMulticast:vector(packetBytes) ETV
attr interpolationmode none
attr recordingmode vector(packetBytes)
attr source ieee80211Multicast(packetSentToPeer)
attr title "packets sent: multicast, packetBytes"
vector 21 SmartHomeNetwork.accessPoint.wlan[0].mac.dcf packetSentToPeerBroadcast:vector(packetBytes) ETV
attr interpolationmode none
attr recordingmode vector(packetBytes)
attr source ieee80211Broadcast(packetSentToPeer)
attr title "packets sent: broadcast , packetBytes"
vector 22 SmartHomeNetwork.accessPoint.wlan[0].mac.dcf packetSentToPeerWithRetry:vector(packetBytes) ETV
attr interpolationmode none
attr recordingmode vector(packetBytes)
attr source ieee80211Retry(packetSentToPeer)
attr title "packets sent: with retry, packetBytes"
vector 23 SmartHomeNetwork.accessPoint.wlan[0].mac.dcf packetSentToPeerWithoutRetry:vector(packetBytes) ETV
attr interpolationmode none
attr recordingmode vector(packetBytes)
attr source ieee80211NotRetry(packetSentToPeer)
attr title "packets sent: without retry, packetBytes"
vector 24 SmartHomeNetwork.accessPoint.wlan[0].mac.dcf packetReceivedFromPeer:vector(packetBytes) ETV
attr interpolationmode none
attr recordingmode vector(packetBytes)
attr title "packets received, packetBytes"
vector 25 SmartHomeNetwork.accessPoint.wlan[0].mac.dcf packetReceivedFromPeerUnicast:vector(packetBytes) ETV
attr interpolationmode none
attr recordingmode vector(packetBytes)
attr source ieee80211Unicast(packetReceivedFromPeer)
attr title "packets received: unicast, packetBytes"
vector 26 SmartHomeNetwork.accessPoint.wlan[0].mac.dcf packetReceivedFromPeerMulticast:vector(packetBytes) ETV
attr interpolationmode none
attr recordingmode vector(packetBytes)
attr source ieee80211Multicast(packetReceivedFromPeer)
attr title "packets received: multicast, packetBytes"
vector 27 SmartHomeNetwork.accessPoint.wlan[0].mac.dcf packetReceivedFromPeerBroadcast:vector(packetBytes) ETV
attr interpolationmode none
attr recordingmode vector(packetBytes)
attr source ieee80211Broadcast(packetReceivedFromPeer)
attr title "packets received: broadcast, packetBytes"
vector 28 SmartHomeNetwork.accessPoint.wlan[0].mac.dcf packetReceivedFromPeerWithRetry:vector(packetBytes) ETV
attr interpolationmode none
attr recordingmode vector(packetBytes)
attr source ieee80211Retry(packetReceivedFromPeer)
attr title "packets received: with retry, packetBytes"
vector 29 SmartHomeNetwork.accessPoint.wlan[0].mac.dcf packetReceivedFromPeerWithoutRetry:vector(packetBytes) ETV
attr interpolationmode none
attr recordingmode vector(packetBytes)
attr source ieee80211NotRetry(packetReceivedFromPeer)
attr title "packets received: without retry, packetBytes"
vector 30 SmartHomeNetwork.accessPoint.wlan[0].mac.dcf packetDrop:vector(packetBytes) ETV
attr interpolationmode none
attr recordingmode vector(packetBytes)
attr source packetDropped
attr title "packet drops, packetBytes"
vector 31 SmartHomeNetwork.accessPoint.wlan[0].mac.dcf packetDropNotAddressedToUs:vector(packetBytes) ETV
attr interpolationmode none
attr recordingmode vector(packetBytes)
attr source packetDropReasonIsNotAddressedToUs(packetDropped)
attr title "packet drops: not addressed to us, packetBytes"
vector 32 SmartHomeNetwork.accessPoint.wlan[0].mac.dcf packetDropQueueOverflow:vector(packetBytes) ETV
attr interpolationmode none
attr recordingmode vector(packetBytes)
attr source packetDropReasonIsQueueOverflow(packetDropped)
attr title "packet drops: queue overflow, packetBytes"
vector 33 SmartHomeNetwork.accessPoint.wlan[0].mac.dcf packetDropRetryLimitReached:vector(packetBytes) ETV
attr interpolationmode none
attr recordingmode vector(packetBytes)
attr source packetDropReasonIsRetryLimitReached(packetDropped)
attr title "packet drops: retry limit reached, packetBytes"
vector 34 SmartHomeNetwork.accessPoint.wlan[0].mac.dcf frameSequenceActive:vector ETV
attr autoWarmupFilter false
attr interpolationmode sample-hold
attr recordingmode vector
attr source warmup(count(frameSequenceStarted)-count(frameSequenceFinished))
attr title "frame sequence active"
vector 35 SmartHomeNetwork.accessPoint.wlan[0].mac.dcf datarateSelected:vector ETV
attr interpolationmode none
attr recordingmode vector
attr title "datarates selected"
vector 36 SmartHomeNetwork.accessPoint.wlan[0].mac.rx nav:vector ETV
attr interpolationmode linear
attr recordingmode vector
attr source navChanged
attr title "network allocation vector"
vector 37 SmartHomeNetwork.accessPoint.wlan[0].mac packetSentToUpper:vector(packetBytes) ETV
attr interpolationmode none
attr recordingmode vector(packetBytes)
attr title "packets sent to upper layer, packetBytes"
vector 38 SmartHomeNetwork.accessPoint.wlan[0].mac packetSentToLower:vector(packetBytes) ETV
attr interpolationmode none
attr recordingmode vector(packetBytes)
attr title "packets sent to lower layer, packetBytes"
vector 39 SmartHomeNetwork.accessPoint.wlan[0].mac packetReceivedFromUpper:vector(packetBytes) ETV
attr interpolationmode none
attr recordingmode vector(packetBytes)
attr title "packets received from upper layer, packetBytes"
vector 40 SmartHomeNetwork.accessPoint.wlan[0].mac packetReceivedFromLower:vector(packetBytes) ETV
attr interpolationmode none
attr recordingmode vector(packetBytes)
attr title "packets received from lower layer, packetBytes"
vector 41 SmartHomeNetwork.accessPoint.wlan[0].mac packetDrop:vector(packetBytes) ETV
attr interpolationmode none
attr recordingmode vector(packetBytes)
attr source packetDropped
attr title "packet drops, packetBytes"
vector 42 SmartHomeNetwork.accessPoint.wlan[0].mac packetDropIncorrectlyReceived:vector(packetBytes) ETV
attr interpolationmode none
attr recordingmode vector(packetBytes)
attr source packetDropReasonIsIncorrectlyReceived(packetDropped)
attr title "packet drops: incorrectly received, packetBytes"
vector 43 SmartHomeNetwork.accessPoint.wlan[0].mac packetDropNotAddressedToUs:vector(packetBytes) ETV
attr interpolationmode none
attr recordingmode vector(packetBytes)
attr source packetDropReasonIsNotAddressedToUs(packetDropped)
attr title "packet drops: not addressed to us, packetBytes"
vector 44 SmartHomeNetwork.accessPoint.wlan[0].mac packetDropQueueOverflow:vector(packetBytes) ETV
attr interpolationmode none
attr recordingmode vector(packetBytes)
attr source packetDropReasonIsQueueOverflow(packetDropped)
attr title "packet drops: queue overflow, packetBytes"
vector 45 SmartHomeNetwork.accessPoint.wlan[0].mac packetDropRetryLimitReached:vector(packetBytes) ETV
attr interpolationmode none
attr recordingmode vector(packetBytes)
attr source packetDropReasonIsRetryLimitReached(packetDropped)
attr title "packet drops: retry limit reached, packetBytes"
vector 46 SmartHomeNetwork.accessPoint.wlan[0].mac packetDropDuplicateDetected:vector(packetBytes) ETV
attr interpolationmode none
attr recordingmode vector(packetBytes)
attr source packetDropReasonIsDuplicateDetected(packetDropped)
attr title "packet drops: duplicate detected, packetBytes"
vector 47 SmartHomeNetwork.accessPoint.wlan[0].mac packetDropOther:vector(packetBytes) ETV
attr interpolationmode none
attr recordingmode vector(packetBytes)
attr source packetDropReasonIsOther(packetDropped)
attr title "packet drops: other, packetBytes"
vector 48 SmartHomeNetwork.accessPoint.wlan[0].radio radioMode:vector ETV
attr interpolationmode sample-hold
attr recordingmode vector
attr source radioModeChanged
attr title "Radio mode"
vector 49 SmartHomeNetwork.accessPoint.wlan[0].radio receptionState:vector ETV
attr interpolationmode sample-hold
attr recordingmode vector
attr source receptionStateChanged
attr title "Radio reception state"
vector 50 SmartHomeNetwork.accessPoint.wlan[0].radio transmissionState:vector ETV
attr interpolationmode sample-hold
attr recordingmode vector
attr source transmissionStateChanged
attr title "Radio transmission state"
vector 51 SmartHomeNetwork.accessPoint.wlan[0].radio radioChannel:vector ETV
attr interpolationmode sample-hold
attr recordingmode vector
attr source radioChannelChanged
attr title "Radio channel"
vector 52 SmartHomeNetwork.accessPoint.wlan[0] packetDropInterfaceDown:vector(packetBytes) ETV
attr interpolationmode none
attr recordingmode vector(packetBytes)
attr source packetDropReasonIsInterfaceDown(packetDropped)
attr title "packet drops: interface down, packetBytes"
vector 53 SmartHomeNetwork.accessPoint.wlan[0] packetDropNoCarrier:vector(packetBytes) ETV
attr interpolationmode none
attr recordingmode vector(packetBytes)
attr source packetDropReasonIsNoCarrier(packetDropped)
attr title "packet drops: no carrier, packetBytes"
vector 54 SmartHomeNetwork.smartLight1.lo[0].lo rcvdPkFromHl:vector(packetBytes) ETV
attr interpolationmode none
attr recordingmode vector(packetBytes)
attr source packetReceivedFromUpper
attr title "packets received from higher layer, packetBytes"
vector 55 SmartHomeNetwork.smartLight1.lo[0].lo passedUpPk:vector(packetBytes) ETV
attr interpolationmode none
attr recordingmode vector(packetBytes)
attr source packetSentToUpper
attr title "packets passed to higher layer, packetBytes"
vector 56 SmartHomeNetwork.smartLight1.lo[0] packetDropInterfaceDown:vector(packetBytes) ETV
attr interpolationmode none
attr recordingmode vector(packetBytes)
attr source packetDropReasonIsInterfaceDown(packetDropped)
attr title "packet drops: interface down, packetBytes"
vector 57 SmartHomeNetwork.smartLight1.lo[0] packetDropNoCarrier:vector(packetBytes) ETV
attr interpolationmode none
attr recordingmode vector(packetBytes)
attr source packetDropReasonIsNoCarrier(packetDropped)
attr title "packet drops: no carrier, packetBytes"
vector 58 SmartHomeNetwork.smartLight1.wlan[0].agent sentRequest:vector ETV
attr recordingmode vector
attr title "sent requests"
vector 59 SmartHomeNetwork.smartLight1.wlan[0].agent acceptConfirm:vector ETV
attr recordingmode vector
attr title "accepted confirms"
vector 60 SmartHomeNetwork.smartLight1.wlan[0].agent dropConfirm:vector ETV
attr recordingmode vector
attr title "dropped confirms"
vector 61 SmartHomeNetwork.smartLight1.wlan[0].mac.dcf.channelAccess.pendingQueue queueLength:vector ETV
attr autoWarmupFilter false
attr interpolationmode sample-hold
attr recordingmode vector
attr source "warmup(atomic(constant0(packetPushEnded) + count(packetPushStarted) - count(packetPulled) - count(packetRemoved) - count(packetDropped)))"
attr title "queue length"
attr unit pk
vector 62 SmartHomeNetwork.smartLight1.wlan[0].mac.dcf.channelAccess.pendingQueue queueBitLength:vector ETV
attr autoWarmupFilter false
attr interpolationmode sample-hold
attr recordingmode vector
attr source "warmup(atomic(constant0(packetPushEnded) + sum(packetLength(packetPushStarted)) - sum(packetLength(packetPulled)) - sum(packetLength(packetRemoved)) - sum(packetLength(packetDropped))))"
attr title "queue bit length"
attr unit b
vector 63 SmartHomeNetwork.smartLight1.wlan[0].mac.dcf.channelAccess.pendingQueue queueingTime:vector ETV
attr interpolationmode none
attr recordingmode vector
attr source queueingTime(packetPulled)
attr title "queueing times"
attr unit s
vector 64 SmartHomeNetwork.smartLight1.wlan[0].mac.dcf.channelAccess.pendingQueue incomingPacketLengths:vector ETV
attr interpolationmode none
attr recordingmode vector
attr source packetLength(packetPushStarted)
attr title "incoming packet lengths"
attr unit b
vector 65 SmartHomeNetwork.smartLight1.wlan[0].mac.dcf.channelAccess.pendingQueue incomingDataRate:vector ETV
attr interpolationmode linear
attr recordingmode vector
attr source throughput(packetPushStarted)
attr title "incoming datarate"
attr unit bps
vector 66 SmartHomeNetwork.smartLight1.wlan[0].mac.dcf.channelAccess.pendingQueue outgoingPacketLengths:vector ETV
attr interpolationmode none
attr recordingmode vector
attr source packetLength(packetPulled)
attr title "outgoing packet lengths"
attr unit b
vector 67 SmartHomeNetwork.smartLight1.wlan[0].mac.dcf.channelAccess.pendingQueue outgoingDataRate:vector ETV
attr interpolationmode linear
attr recordingmode vector
attr source throughput(packetPulled)
attr title "outgoing datarate"
attr unit bps
vector 68 SmartHomeNetwork.smartLight1.wlan[0].mac.dcf.channelAccess.pendingQueue droppedPacketLengthsQueueOverflow:vector ETV
attr interpolationmode none
attr recordingmode vector
attr source packetLength(packetDropReasonIsQueueOverflow(packetDropped))
attr title "dropped packet lengths: queue overflow"
attr unit b
vector 69 SmartHomeNetwork.smartLight1.wlan[0].mac.dcf.channelAccess.pendingQueue flowQueueingTime:vector ETV
attr interpolationmode none
attr recordingmode vector
attr source queueingTime(demuxFlow(packetPulled))
attr title "flow queueing times"
attr unit s
vector 70 SmartHomeNetwork.smartLight1.wlan[0].mac.dcf.channelAccess.pendingQueue flowIncomingDataRate:vector ETV
attr interpolationmode linear
attr recordingmode vector
attr source throughput(flowPacketLength(demuxFlow(packetPushStarted)))
attr title "flow specific incoming data rate"
attr unit bps
vector 71 SmartHomeNetwork.smartLight1.wlan[0].mac.dcf.channelAccess.pendingQueue flowOutgoingDataRate:vector ETV
attr interpolationmode linear
attr recordingmode vector
attr source throughput(flowPacketLength(demuxFlow(packetPulled)))
attr title "flow specific outgoing data rate"
attr unit bps
vector 72 SmartHomeNetwork.smartLight1.wlan[0].mac.dcf.channelAccess.inProgressFrames queueingTime:vector ETV
attr interpolationmode none
attr recordingmode vector
attr source queueingTime(packetDequeued)
attr title "queueing times"
vector 73 SmartHomeNetwork.smartLight1.wlan[0].mac.dcf.channelAccess.inProgressFrames queueLength:vector ETV
attr autoWarmupFilter false
attr interpolationmode sample-hold
attr recordingmode vector
attr source "warmup(count(packetEnqueued) - count(packetDequeued))"
attr title "queue length"
vector 74 SmartHomeNetwork.smartLight1.wlan[0].mac.dcf.channelAccess.contention backoffPeriodGenerated:vector ETV
attr interpolationmode none
attr recordingmode vector
attr title "backoff periods"
vector 75 SmartHomeNetwork.smartLight1.wlan[0].mac.dcf.channelAccess.contention backoffActive:vector ETV
attr autoWarmupFilter false
attr interpolationmode sample-hold
attr recordingmode vector
attr source warmup(count(backoffStarted)-count(backoffStopped))
attr title "backoff active"
vector 76 SmartHomeNetwork.smartLight1.wlan[0].mac.dcf.channelAccess.contention stateChanged:vector ETV
attr enum IDLE,DEFER,IFS_AND_BACKOFF
attr interpolationmode none
attr recordingmode vector
attr title "contention state changed"
attr type enum
vector 77 SmartHomeNetwork.smartLight1.wlan[0].mac.dcf.recipientMacDataService packetDropDuplicateDetected:vector(packetBytes) ETV
attr interpolationmode none
attr recordingmode vector(packetBytes)
attr source packetDropReasonIsDuplicateDetected(packetDropped)
attr title "packet drops: duplicate detected, packetBytes"
vector 78 SmartHomeNetwork.smartLight1.wlan[0].mac.dcf.recoveryProcedure contentionWindowChanged:vector ETV
attr interpolationmode sample-hold
attr recordingmode vector
attr title "contention window"
vector 79 SmartHomeNetwork.smartLight1.wlan[0].mac.dcf packetSentToPeer:vector(packetBytes) ETV
attr interpolationmode none
attr recordingmode vector(packetBytes)
attr title "packets sent, packetBytes"
vector 80 SmartHomeNetwork.smartLight1.wlan[0].mac.dcf packetSentToPeerUnicast:vector(packetBytes) ETV
attr interpolationmode none
attr recordingmode vector(packetBytes)
attr source ieee80211Unicast(packetSentToPeer)
attr title "packets sent: unicast, packetBytes"
vector 81 SmartHomeNetwork.smartLight1.wlan[0].mac.dcf packetSentToPeerMulticast:vector(packetBytes) ETV
attr interpolationmode none
attr recordingmode vector(packetBytes)
attr source ieee80211Multicast(packetSentToPeer)
attr title "packets sent: multicast, packetBytes"
vector 82 SmartHomeNetwork.smartLight1.wlan[0].mac.dcf packetSentToPeerBroadcast:vector(packetBytes) ETV
attr interpolationmode none
attr recordingmode vector(packetBytes)
attr source ieee80211Broadcast(packetSentToPeer)
attr title "packets sent: broadcast , packetBytes"
vector 83 SmartHomeNetwork.smartLight1.wlan[0].mac.dcf packetSentToPeerWithRetry:vector(packetBytes) ETV
attr interpolationmode none
attr recordingmode vector(packetBytes)
attr source ieee80211Retry(packetSentToPeer)
attr title "packets sent: with retry, packetBytes"
vector 84 SmartHomeNetwork.smartLight1.wlan[0].mac.dcf packetSentToPeerWithoutRetry:vector(packetBytes) ETV
attr interpolationmode none
attr recordingmode vector(packetBytes)
attr source ieee80211NotRetry(packetSentToPeer)
attr title "packets sent: without retry, packetBytes"
vector 85 SmartHomeNetwork.smartLight1.wlan[0].mac.dcf packetReceivedFromPeer:vector(packetBytes) ETV
attr interpolationmode none
attr recordingmode vector(packetBytes)
attr title "packets received, packetBytes"
vector 86 SmartHomeNetwork.smartLight1.wlan[0].mac.dcf packetReceivedFromPeerUnicast:vector(packetBytes) ETV
attr interpolationmode none
attr recordingmode vector(packetBytes)
attr source ieee80211Unicast(packetReceivedFromPeer)
attr title "packets received: unicast, packetBytes"
vector 87 SmartHomeNetwork.smartLight1.wlan[0].mac.dcf packetReceivedFromPeerMulticast:vector(packetBytes) ETV
attr interpolationmode none
attr recordingmode vector(packetBytes)
attr source ieee80211Multicast(packetReceivedFromPeer)
attr title "packets received: multicast, packetBytes"
vector 88 SmartHomeNetwork.smartLight1.wlan[0].mac.dcf packetReceivedFromPeerBroadcast:vector(packetBytes) ETV
attr interpolationmode none
attr recordingmode vector(packetBytes)
attr source ieee80211Broadcast(packetReceivedFromPeer)
attr title "packets received: broadcast, packetBytes"
vector 89 SmartHomeNetwork.smartLight1.wlan[0].mac.dcf packetReceivedFromPeerWithRetry:vector(packetBytes) ETV
attr interpolationmode none
attr recordingmode vector(packetBytes)
attr source ieee80211Retry(packetReceivedFromPeer)
attr title "packets received: with retry, packetBytes"
vector 90 SmartHomeNetwork.smartLight1.wlan[0].mac.dcf packetReceivedFromPeerWithoutRetry:vector(packetBytes) ETV
attr interpolationmode none
attr recordingmode vector(packetBytes)
attr source ieee80211NotRetry(packetReceivedFromPeer)
attr title "packets received: without retry, packetBytes"
vector 91 SmartHomeNetwork.smartLight1.wlan[0].mac.dcf packetDrop:vector(packetBytes) ETV
attr interpolationmode none
attr recordingmode vector(packetBytes)
attr source packetDropped
attr title "packet drops, packetBytes"
vector 92 SmartHomeNetwork.smartLight1.wlan[0].mac.dcf packetDropNotAddressedToUs:vector(packetBytes) ETV
attr interpolationmode none
attr recordingmode vector(packetBytes)
attr source packetDropReasonIsNotAddressedToUs(packetDropped)
attr title "packet drops: not addressed to us, packetBytes"
vector 93 SmartHomeNetwork.smartLight1.wlan[0].mac.dcf packetDropQueueOverflow:vector(packetBytes) ETV
attr interpolationmode none
attr recordingmode vector(packetBytes)
attr source packetDropReasonIsQueueOverflow(packetDropped)
attr title "packet drops: queue overflow, packetBytes"
vector 94 SmartHomeNetwork.smartLight1.wlan[0].mac.dcf packetDropRetryLimitReached:vector(packetBytes) ETV
attr interpolationmode none
attr recordingmode vector(packetBytes)
attr source packetDropReasonIsRetryLimitReached(packetDropped)
attr title "packet drops: retry limit reached, packetBytes"
vector 95 SmartHomeNetwork.smartLight1.wlan[0].mac.dcf frameSequenceActive:vector ETV
attr autoWarmupFilter false
attr interpolationmode sample-hold
attr recordingmode vector
attr source warmup(count(frameSequenceStarted)-count(frameSequenceFinished))
attr title "frame sequence active"
vector 96 SmartHomeNetwork.smartLight1.wlan[0].mac.dcf datarateSelected:vector ETV
attr interpolationmode none
attr recordingmode vector
attr title "datarates selected"
vector 97 SmartHomeNetwork.smartLight1.wlan[0].mac.rx nav:vector ETV
attr interpolationmode linear
attr recordingmode vector
attr source navChanged
attr title "network allocation vector"
vector 98 SmartHomeNetwork.smartLight1.wlan[0].mac packetSentToUpper:vector(packetBytes) ETV
attr interpolationmode none
attr recordingmode vector(packetBytes)
attr title "packets sent to upper layer, packetBytes"
vector 99 SmartHomeNetwork.smartLight1.wlan[0].mac packetSentToLower:vector(packetBytes) ETV
attr interpolationmode none
attr recordingmode vector(packetBytes)
attr title "packets sent to lower layer, packetBytes"
vector 100 SmartHomeNetwork.smartLight1.wlan[0].mac packetReceivedFromUpper:vector(packetBytes) ETV
attr interpolationmode none
attr recordingmode vector(packetBytes)
attr title "packets received from upper layer, packetBytes"
vector 101 SmartHomeNetwork.smartLight1.wlan[0].mac packetReceivedFromLower:vector(packetBytes) ETV
attr interpolationmode none
attr recordingmode vector(packetBytes)
attr title "packets received from lower layer, packetBytes"
vector 102 SmartHomeNetwork.smartLight1.wlan[0].mac packetDrop:vector(packetBytes) ETV
attr interpolationmode none
attr recordingmode vector(packetBytes)
attr source packetDropped
attr title "packet drops, packetBytes"
vector 103 SmartHomeNetwork.smartLight1.wlan[0].mac packetDropIncorrectlyReceived:vector(packetBytes) ETV
attr interpolationmode none
attr recordingmode vector(packetBytes)
attr source packetDropReasonIsIncorrectlyReceived(packetDropped)
attr title "packet drops: incorrectly received, packetBytes"
vector 104 SmartHomeNetwork.smartLight1.wlan[0].mac packetDropNotAddressedToUs:vector(packetBytes) ETV
attr interpolationmode none
attr recordingmode vector(packetBytes)
attr source packetDropReasonIsNotAddressedToUs(packetDropped)
attr title "packet drops: not addressed to us, packetBytes"
vector 105 SmartHomeNetwork.smartLight1.wlan[0].mac packetDropQueueOverflow:vector(packetBytes) ETV
attr interpolationmode none
attr recordingmode vector(packetBytes)
attr source packetDropReasonIsQueueOverflow(packetDropped)
attr title "packet drops: queue overflow, packetBytes"
vector 106 SmartHomeNetwork.smartLight1.wlan[0].mac packetDropRetryLimitReached:vector(packetBytes) ETV
attr interpolationmode none
attr recordingmode vector(packetBytes)
attr source packetDropReasonIsRetryLimitReached(packetDropped)
attr title "packet drops: retry limit reached, packetBytes"
vector 107 SmartHomeNetwork.smartLight1.wlan[0].mac packetDropDuplicateDetected:vector(packetBytes) ETV
attr interpolationmode none
attr recordingmode vector(packetBytes)
attr source packetDropReasonIsDuplicateDetected(packetDropped)
attr title "packet drops: duplicate detected, packetBytes"
vector 108 SmartHomeNetwork.smartLight1.wlan[0].mac packetDropOther:vector(packetBytes) ETV
attr interpolationmode none
attr recordingmode vector(packetBytes)
attr source packetDropReasonIsOther(packetDropped)
attr title "packet drops: other, packetBytes"
vector 109 SmartHomeNetwork.smartLight1.wlan[0].radio radioMode:vector ETV
attr interpolationmode sample-hold
attr recordingmode vector
attr source radioModeChanged
attr title "Radio mode"
vector 110 SmartHomeNetwork.smartLight1.wlan[0].radio receptionState:vector ETV
attr interpolationmode sample-hold
attr recordingmode vector
attr source receptionStateChanged
attr title "Radio reception state"
vector 111 SmartHomeNetwork.smartLight1.wlan[0].radio transmissionState:vector ETV
attr interpolationmode sample-hold
attr recordingmode vector
attr source transmissionStateChanged
attr title "Radio transmission state"
vector 112 SmartHomeNetwork.smartLight1.wlan[0].radio radioChannel:vector ETV
attr interpolationmode sample-hold
attr recordingmode vector
attr source radioChannelChanged
attr title "Radio channel"
vector 113 SmartHomeNetwork.smartLight1.wlan[0] packetDropInterfaceDown:vector(packetBytes) ETV
attr interpolationmode none
attr recordingmode vector(packetBytes)
attr source packetDropReasonIsInterfaceDown(packetDropped)
attr title "packet drops: interface down, packetBytes"
vector 114 SmartHomeNetwork.smartLight1.wlan[0] packetDropNoCarrier:vector(packetBytes) ETV
attr interpolationmode none
attr recordingmode vector(packetBytes)
attr source packetDropReasonIsNoCarrier(packetDropped)
attr title "packet drops: no carrier, packetBytes"
vector 115 SmartHomeNetwork.smartLight1.ipv4.ip packetDropAddressResolutionFailed:vector(packetBytes) ETV
attr interpolationmode none
attr recordingmode vector(packetBytes)
attr source packetDropReasonIsAddressResolutionFailed(packetDropped)
attr title "packet drop: address resolution failed, packetBytes"
vector 116 SmartHomeNetwork.smartLight1.ipv4.ip packetDropHopLimitReached:vector(packetBytes) ETV
attr interpolationmode none
attr recordingmode vector(packetBytes)
attr source packetDropReasonIsHopLimitReached(packetDropped)
attr title "packet drop: hop limit reached, packetBytes"
vector 117 SmartHomeNetwork.smartLight1.ipv4.ip packetDropForwardingDisabled:vector(packetBytes) ETV
attr interpolationmode none
attr recordingmode vector(packetBytes)
attr source packetDropReasonIsForwardingDisabled(packetDropped)
attr title "packet drop: forwarding disabled, packetBytes"
vector 118 SmartHomeNetwork.smartLight1.ipv4.ip packetDropNoInterfaceFound:vector(packetBytes) ETV
attr interpolationmode none
attr recordingmode vector(packetBytes)
attr source packetDropReasonIsNoInterfaceFound(packetDropped)
attr title "packet drop: no interface found, packetBytes"
vector 119 SmartHomeNetwork.smartLight1.ipv4.ip packetDropNoRouteFound:vector(packetBytes) ETV
attr interpolationmode none
attr recordingmode vector(packetBytes)
attr source packetDropReasonIsNoRouteFound(packetDropped)
attr title "packet drop: no route found, packetBytes"
vector 120 SmartHomeNetwork.smartLight1.ipv4.ip packetDropUndefined:vector(packetBytes) ETV
attr interpolationmode none
attr recordingmode vector(packetBytes)
attr source packetDropReasonIsUndefined(packetDropped)
attr title "packet drop: undefined, packetBytes"
vector 121 SmartHomeNetwork.smartLight1.ipv4.arp arpRequestSent:vector(packetBytes) ETV
attr recordingmode vector(packetBytes)
attr source arpRequestSent
attr title "ARP request sent, packetBytes"
vector 122 SmartHomeNetwork.smartLight1.ipv4.arp arpReplySent:vector(packetBytes) ETV
attr recordingmode vector(packetBytes)
attr source arpReplySent
attr title "ARP replies sent, packetBytes"
vector 123 SmartHomeNetwork.smartLight1.udp packetSent:vector(packetBytes) ETV
attr interpolationmode none
attr recordingmode vector(packetBytes)
attr source packetSent
attr title "packets sent, packetBytes"
vector 124 SmartHomeNetwork.smartLight1.udp packetReceived:vector(packetBytes) ETV
attr interpolationmode none
attr recordingmode vector(packetBytes)
attr source packetReceived
attr title "packets received, packetBytes"
vector 125 SmartHomeNetwork.smartLight1.udp passedUpPk:vector(count) ETV
attr interpolationmode none
attr recordingmode vector(count)
attr source packetSentToUpper
attr title "packets passed up, count"
vector 126 SmartHomeNetwork.smartLight1.udp droppedPkWrongPort:vector(count) ETV
attr interpolationmode none
attr recordingmode vector(count)
attr source packetDropReasonIsNoPortFound(packetDropped)
attr title "packets dropped (wrong port), count"
vector 127 SmartHomeNetwork.smartLight1.udp droppedPkBadChecksum:vector(count) ETV
attr interpolationmode none
attr recordingmode vector(count)
attr source packetDropReasonIsIncorrectlyReceived(packetDropped)
attr title "packets dropped (checksum error), count"
vector 128 SmartHomeNetwork.smartLight2.lo[0].lo rcvdPkFromHl:vector(packetBytes) ETV
attr interpolationmode none
attr recordingmode vector(packetBytes)
attr source packetReceivedFromUpper
attr title "packets received from higher layer, packetBytes"
vector 129 SmartHomeNetwork.smartLight2.lo[0].lo passedUpPk:vector(packetBytes) ETV
attr interpolationmode none
attr recordingmode vector(packetBytes)
attr source packetSentToUpper
attr title "packets passed to higher layer, packetBytes"
vector 130 SmartHomeNetwork.smartLight2.lo[0] packetDropInterfaceDown:vector(packetBytes) ETV
attr interpolationmode none
attr recordingmode vector(packetBytes)
attr source packetDropReasonIsInterfaceDown(packetDropped)
attr title "packet drops: interface down, packetBytes"
vector 131 SmartHomeNetwork.smartLight2.lo[0] packetDropNoCarrier:vector(packetBytes) ETV
attr interpolationmode none
attr recordingmode vector(packetBytes)
attr source packetDropReasonIsNoCarrier(packetDropped)
attr title "packet drops: no carrier, packetBytes"
vector 132 SmartHomeNetwork.smartLight2.wlan[0].agent sentRequest:vector ETV
attr recordingmode vector
attr title "sent requests"
vector 133 SmartHomeNetwork.smartLight2.wlan[0].agent acceptConfirm:vector ETV
attr recordingmode vector
attr title "accepted confirms"
vector 134 SmartHomeNetwork.smartLight2.wlan[0].agent dropConfirm:vector ETV
attr recordingmode vector
attr title "dropped confirms"
vector 135 SmartHomeNetwork.smartLight2.wlan[0].mac.dcf.channelAccess.pendingQueue queueLength:vector ETV
attr autoWarmupFilter false
attr interpolationmode sample-hold
attr recordingmode vector
attr source "warmup(atomic(constant0(packetPushEnded) + count(packetPushStarted) - count(packetPulled) - count(packetRemoved) - count(packetDropped)))"
attr title "queue length"
attr unit pk
vector 136 SmartHomeNetwork.smartLight2.wlan[0].mac.dcf.channelAccess.pendingQueue queueBitLength:vector ETV
attr autoWarmupFilter false
attr interpolationmode sample-hold
attr recordingmode vector
attr source "warmup(atomic(constant0(packetPushEnded) + sum(packetLength(packetPushStarted)) - sum(packetLength(packetPulled)) - sum(packetLength(packetRemoved)) - sum(packetLength(packetDropped))))"
attr title "queue bit length"
attr unit b
vector 137 SmartHomeNetwork.smartLight2.wlan[0].mac.dcf.channelAccess.pendingQueue queueingTime:vector ETV
attr interpolationmode none
attr recordingmode vector
attr source queueingTime(packetPulled)
attr title "queueing times"
attr unit s
vector 138 SmartHomeNetwork.smartLight2.wlan[0].mac.dcf.channelAccess.pendingQueue incomingPacketLengths:vector ETV
attr interpolationmode none
attr recordingmode vector
attr source packetLength(packetPushStarted)
attr title "incoming packet lengths"
attr unit b
vector 139 SmartHomeNetwork.smartLight2.wlan[0].mac.dcf.channelAccess.pendingQueue incomingDataRate:vector ETV
attr interpolationmode linear
attr recordingmode vector
attr source throughput(packetPushStarted)
attr title "incoming datarate"
attr unit bps
vector 140 SmartHomeNetwork.smartLight2.wlan[0].mac.dcf.channelAccess.pendingQueue outgoingPacketLengths:vector ETV
attr interpolationmode none
attr recordingmode vector
attr source packetLength(packetPulled)
attr title "outgoing packet lengths"
attr unit b
vector 141 SmartHomeNetwork.smartLight2.wlan[0].mac.dcf.channelAccess.pendingQueue outgoingDataRate:vector ETV
attr interpolationmode linear
attr recordingmode vector
attr source throughput(packetPulled)
attr title "outgoing datarate"
attr unit bps
vector 142 SmartHomeNetwork.smartLight2.wlan[0].mac.dcf.channelAccess.pendingQueue droppedPacketLengthsQueueOverflow:vector ETV
attr interpolationmode none
attr recordingmode vector
attr source packetLength(packetDropReasonIsQueueOverflow(packetDropped))
attr title "dropped packet lengths: queue overflow"
attr unit b
vector 143 SmartHomeNetwork.smartLight2.wlan[0].mac.dcf.channelAccess.pendingQueue flowQueueingTime:vector ETV
attr interpolationmode none
attr recordingmode vector
attr source queueingTime(demuxFlow(packetPulled))
attr title "flow queueing times"
attr unit s
vector 144 SmartHomeNetwork.smartLight2.wlan[0].mac.dcf.channelAccess.pendingQueue flowIncomingDataRate:vector ETV
attr interpolationmode linear
attr recordingmode vector
attr source throughput(flowPacketLength(demuxFlow(packetPushStarted)))
attr title "flow specific incoming data rate"
attr unit bps
vector 145 SmartHomeNetwork.smartLight2.wlan[0].mac.dcf.channelAccess.pendingQueue flowOutgoingDataRate:vector ETV
attr interpolationmode linear
attr recordingmode vector
attr source throughput(flowPacketLength(demuxFlow(packetPulled)))
attr title "flow specific outgoing data rate"
attr unit bps
vector 146 SmartHomeNetwork.smartLight2.wlan[0].mac.dcf.channelAccess.inProgressFrames queueingTime:vector ETV
attr interpolationmode none
attr recordingmode vector
attr source queueingTime(packetDequeued)
attr title "queueing times"
vector 147 SmartHomeNetwork.smartLight2.wlan[0].mac.dcf.channelAccess.inProgressFrames queueLength:vector ETV
attr autoWarmupFilter false
attr interpolationmode sample-hold
attr recordingmode vector
attr source "warmup(count(packetEnqueued) - count(packetDequeued))"
attr title "queue length"
vector 148 SmartHomeNetwork.smartLight2.wlan[0].mac.dcf.channelAccess.contention backoffPeriodGenerated:vector ETV
attr interpolationmode none
attr recordingmode vector
attr title "backoff periods"
vector 149 SmartHomeNetwork.smartLight2.wlan[0].mac.dcf.channelAccess.contention backoffActive:vector ETV
attr autoWarmupFilter false
attr interpolationmode sample-hold
attr recordingmode vector
attr source warmup(count(backoffStarted)-count(backoffStopped))
attr title "backoff active"
vector 150 SmartHomeNetwork.smartLight2.wlan[0].mac.dcf.channelAccess.contention stateChanged:vector ETV
attr enum IDLE,DEFER,IFS_AND_BACKOFF
attr interpolationmode none
attr recordingmode vector
attr title "contention state changed"
attr type enum
vector 151 SmartHomeNetwork.smartLight2.wlan[0].mac.dcf.recipientMacDataService packetDropDuplicateDetected:vector(packetBytes) ETV
attr interpolationmode none
attr recordingmode vector(packetBytes)
attr source packetDropReasonIsDuplicateDetected(packetDropped)
attr title "packet drops: duplicate detected, packetBytes"
vector 152 SmartHomeNetwork.smartLight2.wlan[0].mac.dcf.recoveryProcedure contentionWindowChanged:vector ETV
attr interpolationmode sample-hold
attr recordingmode vector
attr title "contention window"
vector 153 SmartHomeNetwork.smartLight2.wlan[0].mac.dcf packetSentToPeer:vector(packetBytes) ETV
attr interpolationmode none
attr recordingmode vector(packetBytes)
attr title "packets sent, packetBytes"
vector 154 SmartHomeNetwork.smartLight2.wlan[0].mac.dcf packetSentToPeerUnicast:vector(packetBytes) ETV
attr interpolationmode none
attr recordingmode vector(packetBytes)
attr source ieee80211Unicast(packetSentToPeer)
attr title "packets sent: unicast, packetBytes"
vector 155 SmartHomeNetwork.smartLight2.wlan[0].mac.dcf packetSentToPeerMulticast:vector(packetBytes) ETV
attr interpolationmode none
attr recordingmode vector(packetBytes)
attr source ieee80211Multicast(packetSentToPeer)
attr title "packets sent: multicast, packetBytes"
vector 156 SmartHomeNetwork.smartLight2.wlan[0].mac.dcf packetSentToPeerBroadcast:vector(packetBytes) ETV
attr interpolationmode none
attr recordingmode vector(packetBytes)
attr source ieee80211Broadcast(packetSentToPeer)
attr title "packets sent: broadcast , packetBytes"
vector 157 SmartHomeNetwork.smartLight2.wlan[0].mac.dcf packetSentToPeerWithRetry:vector(packetBytes) ETV
attr interpolationmode none
attr recordingmode vector(packetBytes)
attr source ieee80211Retry(packetSentToPeer)
attr title "packets sent: with retry, packetBytes"
vector 158 SmartHomeNetwork.smartLight2.wlan[0].mac.dcf packetSentToPeerWithoutRetry:vector(packetBytes) ETV
attr interpolationmode none
attr recordingmode vector(packetBytes)
attr source ieee80211NotRetry(packetSentToPeer)
attr title "packets sent: without retry, packetBytes"
vector 159 SmartHomeNetwork.smartLight2.wlan[0].mac.dcf packetReceivedFromPeer:vector(packetBytes) ETV
attr interpolationmode none
attr recordingmode vector(packetBytes)
attr title "packets received, packetBytes"
vector 160 SmartHomeNetwork.smartLight2.wlan[0].mac.dcf packetReceivedFromPeerUnicast:vector(packetBytes) ETV
attr interpolationmode none
attr recordingmode vector(packetBytes)
attr source ieee80211Unicast(packetReceivedFromPeer)
attr title "packets received: unicast, packetBytes"
vector 161 SmartHomeNetwork.smartLight2.wlan[0].mac.dcf packetReceivedFromPeerMulticast:vector(packetBytes) ETV
attr interpolationmode none
attr recordingmode vector(packetBytes)
attr source ieee80211Multicast(packetReceivedFromPeer)
attr title "packets received: multicast, packetBytes"
vector 162 SmartHomeNetwork.smartLight2.wlan[0].mac.dcf packetReceivedFromPeerBroadcast:vector(packetBytes) ETV
attr interpolationmode none
attr recordingmode vector(packetBytes)
attr source ieee80211Broadcast(packetReceivedFromPeer)
attr title "packets received: broadcast, packetBytes"
vector 163 SmartHomeNetwork.smartLight2.wlan[0].mac.dcf packetReceivedFromPeerWithRetry:vector(packetBytes) ETV
attr interpolationmode none
attr recordingmode vector(packetBytes)
attr source ieee80211Retry(packetReceivedFromPeer)
attr title "packets received: with retry, packetBytes"
vector 164 SmartHomeNetwork.smartLight2.wlan[0].mac.dcf packetReceivedFromPeerWithoutRetry:vector(packetBytes) ETV
attr interpolationmode none
attr recordingmode vector(packetBytes)
attr source ieee80211NotRetry(packetReceivedFromPeer)
attr title "packets received: without retry, packetBytes"
vector 165 SmartHomeNetwork.smartLight2.wlan[0].mac.dcf packetDrop:vector(packetBytes) ETV
attr interpolationmode none
attr recordingmode vector(packetBytes)
attr source packetDropped
attr title "packet drops, packetBytes"
vector 166 SmartHomeNetwork.smartLight2.wlan[0].mac.dcf packetDropNotAddressedToUs:vector(packetBytes) ETV
attr interpolationmode none
attr recordingmode vector(packetBytes)
attr source packetDropReasonIsNotAddressedToUs(packetDropped)
attr title "packet drops: not addressed to us, packetBytes"
vector 167 SmartHomeNetwork.smartLight2.wlan[0].mac.dcf packetDropQueueOverflow:vector(packetBytes) ETV
attr interpolationmode none
attr recordingmode vector(packetBytes)
attr source packetDropReasonIsQueueOverflow(packetDropped)
attr title "packet drops: queue overflow, packetBytes"
vector 168 SmartHomeNetwork.smartLight2.wlan[0].mac.dcf packetDropRetryLimitReached:vector(packetBytes) ETV
attr interpolationmode none
attr recordingmode vector(packetBytes)
attr source packetDropReasonIsRetryLimitReached(packetDropped)
attr title "packet drops: retry limit reached, packetBytes"
vector 169 SmartHomeNetwork.smartLight2.wlan[0].mac.dcf frameSequenceActive:vector ETV
attr autoWarmupFilter false
attr interpolationmode sample-hold
attr recordingmode vector
attr source warmup(count(frameSequenceStarted)-count(frameSequenceFinished))
attr title "frame sequence active"
vector 170 SmartHomeNetwork.smartLight2.wlan[0].mac.dcf datarateSelected:vector ETV
attr interpolationmode none
attr recordingmode vector
attr title "datarates selected"
vector 171 SmartHomeNetwork.smartLight2.wlan[0].mac.rx nav:vector ETV
attr interpolationmode linear
attr recordingmode vector
attr source navChanged
attr title "network allocation vector"
vector 172 SmartHomeNetwork.smartLight2.wlan[0].mac packetSentToUpper:vector(packetBytes) ETV
attr interpolationmode none
attr recordingmode vector(packetBytes)
attr title "packets sent to upper layer, packetBytes"
vector 173 SmartHomeNetwork.smartLight2.wlan[0].mac packetSentToLower:vector(packetBytes) ETV
attr interpolationmode none
attr recordingmode vector(packetBytes)
attr title "packets sent to lower layer, packetBytes"
vector 174 SmartHomeNetwork.smartLight2.wlan[0].mac packetReceivedFromUpper:vector(packetBytes) ETV
attr interpolationmode none
attr recordingmode vector(packetBytes)
attr title "packets received from upper layer, packetBytes"
vector 175 SmartHomeNetwork.smartLight2.wlan[0].mac packetReceivedFromLower:vector(packetBytes) ETV
attr interpolationmode none
attr recordingmode vector(packetBytes)
attr title "packets received from lower layer, packetBytes"
vector 176 SmartHomeNetwork.smartLight2.wlan[0].mac packetDrop:vector(packetBytes) ETV
attr interpolationmode none
attr recordingmode vector(packetBytes)
attr source packetDropped
attr title "packet drops, packetBytes"
vector 177 SmartHomeNetwork.smartLight2.wlan[0].mac packetDropIncorrectlyReceived:vector(packetBytes) ETV
attr interpolationmode none
attr recordingmode vector(packetBytes)
attr source packetDropReasonIsIncorrectlyReceived(packetDropped)
attr title "packet drops: incorrectly received, packetBytes"
vector 178 SmartHomeNetwork.smartLight2.wlan[0].mac packetDropNotAddressedToUs:vector(packetBytes) ETV
attr interpolationmode none
attr recordingmode vector(packetBytes)
attr source packetDropReasonIsNotAddressedToUs(packetDropped)
attr title "packet drops: not addressed to us, packetBytes"
vector 179 SmartHomeNetwork.smartLight2.wlan[0].mac packetDropQueueOverflow:vector(packetBytes) ETV
attr interpolationmode none
attr recordingmode vector(packetBytes)
attr source packetDropReasonIsQueueOverflow(packetDropped)
attr title "packet drops: queue overflow, packetBytes"
vector 180 SmartHomeNetwork.smartLight2.wlan[0].mac packetDropRetryLimitReached:vector(packetBytes) ETV
attr interpolationmode none
attr recordingmode vector(packetBytes)
attr source packetDropReasonIsRetryLimitReached(packetDropped)
attr title "packet drops: retry limit reached, packetBytes"
vector 181 SmartHomeNetwork.smartLight2.wlan[0].mac packetDropDuplicateDetected:vector(packetBytes) ETV
attr interpolationmode none
attr recordingmode vector(packetBytes)
attr source packetDropReasonIsDuplicateDetected(packetDropped)
attr title "packet drops: duplicate detected, packetBytes"
vector 182 SmartHomeNetwork.smartLight2.wlan[0].mac packetDropOther:vector(packetBytes) ETV
attr interpolationmode none
attr recordingmode vector(packetBytes)
attr source packetDropReasonIsOther(packetDropped)
attr title "packet drops: other, packetBytes"
vector 183 SmartHomeNetwork.smartLight2.wlan[0].radio radioMode:vector ETV
attr interpolationmode sample-hold
attr recordingmode vector
attr source radioModeChanged
attr title "Radio mode"
vector 184 SmartHomeNetwork.smartLight2.wlan[0].radio receptionState:vector ETV
attr interpolationmode sample-hold
attr recordingmode vector
attr source receptionStateChanged
attr title "Radio reception state"
vector 185 SmartHomeNetwork.smartLight2.wlan[0].radio transmissionState:vector ETV
attr interpolationmode sample-hold
attr recordingmode vector
attr source transmissionStateChanged
attr title "Radio transmission state"
vector 186 SmartHomeNetwork.smartLight2.wlan[0].radio radioChannel:vector ETV
attr interpolationmode sample-hold
attr recordingmode vector
attr source radioChannelChanged
attr title "Radio channel"
vector 187 SmartHomeNetwork.smartLight2.wlan[0] packetDropInterfaceDown:vector(packetBytes) ETV
attr interpolationmode none
attr recordingmode vector(packetBytes)
attr source packetDropReasonIsInterfaceDown(packetDropped)
attr title "packet drops: interface down, packetBytes"
vector 188 SmartHomeNetwork.smartLight2.wlan[0] packetDropNoCarrier:vector(packetBytes) ETV
attr interpolationmode none
attr recordingmode vector(packetBytes)
attr source packetDropReasonIsNoCarrier(packetDropped)
attr title "packet drops: no carrier, packetBytes"
vector 189 SmartHomeNetwork.smartLight2.ipv4.ip packetDropAddressResolutionFailed:vector(packetBytes) ETV
attr interpolationmode none
attr recordingmode vector(packetBytes)
attr source packetDropReasonIsAddressResolutionFailed(packetDropped)
attr title "packet drop: address resolution failed, packetBytes"
vector 190 SmartHomeNetwork.smartLight2.ipv4.ip packetDropHopLimitReached:vector(packetBytes) ETV
attr interpolationmode none
attr recordingmode vector(packetBytes)
attr source packetDropReasonIsHopLimitReached(packetDropped)
attr title "packet drop: hop limit reached, packetBytes"
vector 191 SmartHomeNetwork.smartLight2.ipv4.ip packetDropForwardingDisabled:vector(packetBytes) ETV
attr interpolationmode none
attr recordingmode vector(packetBytes)
attr source packetDropReasonIsForwardingDisabled(packetDropped)
attr title "packet drop: forwarding disabled, packetBytes"
vector 192 SmartHomeNetwork.smartLight2.ipv4.ip packetDropNoInterfaceFound:vector(packetBytes) ETV
attr interpolationmode none
attr recordingmode vector(packetBytes)
attr source packetDropReasonIsNoInterfaceFound(packetDropped)
attr title "packet drop: no interface found, packetBytes"
vector 193 SmartHomeNetwork.smartLight2.ipv4.ip packetDropNoRouteFound:vector(packetBytes) ETV
attr interpolationmode none
attr recordingmode vector(packetBytes)
attr source packetDropReasonIsNoRouteFound(packetDropped)
attr title "packet drop: no route found, packetBytes"
vector 194 SmartHomeNetwork.smartLight2.ipv4.ip packetDropUndefined:vector(packetBytes) ETV
attr interpolationmode none
attr recordingmode vector(packetBytes)
attr source packetDropReasonIsUndefined(packetDropped)
attr title "packet drop: undefined, packetBytes"
vector 195 SmartHomeNetwork.smartLight2.ipv4.arp arpRequestSent:vector(packetBytes) ETV
attr recordingmode vector(packetBytes)
attr source arpRequestSent
attr title "ARP request sent, packetBytes"
vector 196 SmartHomeNetwork.smartLight2.ipv4.arp arpReplySent:vector(packetBytes) ETV
attr recordingmode vector(packetBytes)
attr source arpReplySent
attr title "ARP replies sent, packetBytes"
vector 197 SmartHomeNetwork.smartLight2.udp packetSent:vector(packetBytes) ETV
attr interpolationmode none
attr recordingmode vector(packetBytes)
attr source packetSent
attr title "packets sent, packetBytes"
vector 198 SmartHomeNetwork.smartLight2.udp packetReceived:vector(packetBytes) ETV
attr interpolationmode none
attr recordingmode vector(packetBytes)
attr source packetReceived
attr title "packets received, packetBytes"
vector 199 SmartHomeNetwork.smartLight2.udp passedUpPk:vector(count) ETV
attr interpolationmode none
attr recordingmode vector(count)
attr source packetSentToUpper
attr title "packets passed up, count"
vector 200 SmartHomeNetwork.smartLight2.udp droppedPkWrongPort:vector(count) ETV
attr interpolationmode none
attr recordingmode vector(count)
attr source packetDropReasonIsNoPortFound(packetDropped)
attr title "packets dropped (wrong port), count"
vector 201 SmartHomeNetwork.smartLight2.udp droppedPkBadChecksum:vector(count) ETV
attr interpolationmode none
attr recordingmode vector(count)
attr source packetDropReasonIsIncorrectlyReceived(packetDropped)
attr title "packets dropped (checksum error), count"
vector 202 SmartHomeNetwork.securityCamera1.lo[0].lo rcvdPkFromHl:vector(packetBytes) ETV
attr interpolationmode none
attr recordingmode vector(packetBytes)
attr source packetReceivedFromUpper
attr title "packets received from higher layer, packetBytes"
vector 203 SmartHomeNetwork.securityCamera1.lo[0].lo passedUpPk:vector(packetBytes) ETV
attr interpolationmode none
attr recordingmode vector(packetBytes)
attr source packetSentToUpper
attr title "packets passed to higher layer, packetBytes"
vector 204 SmartHomeNetwork.securityCamera1.lo[0] packetDropInterfaceDown:vector(packetBytes) ETV
attr interpolationmode none
attr recordingmode vector(packetBytes)
attr source packetDropReasonIsInterfaceDown(packetDropped)
attr title "packet drops: interface down, packetBytes"
vector 205 SmartHomeNetwork.securityCamera1.lo[0] packetDropNoCarrier:vector(packetBytes) ETV
attr interpolationmode none
attr recordingmode vector(packetBytes)
attr source packetDropReasonIsNoCarrier(packetDropped)
attr title "packet drops: no carrier, packetBytes"
vector 206 SmartHomeNetwork.securityCamera1.wlan[0].agent sentRequest:vector ETV
attr recordingmode vector
attr title "sent requests"
vector 207 SmartHomeNetwork.securityCamera1.wlan[0].agent acceptConfirm:vector ETV
attr recordingmode vector
attr title "accepted confirms"
vector 208 SmartHomeNetwork.securityCamera1.wlan[0].agent dropConfirm:vector ETV
attr recordingmode vector
attr title "dropped confirms"
vector 209 SmartHomeNetwork.securityCamera1.wlan[0].mac.dcf.channelAccess.pendingQueue queueLength:vector ETV
attr autoWarmupFilter false
attr interpolationmode sample-hold
attr recordingmode vector
attr source "warmup(atomic(constant0(packetPushEnded) + count(packetPushStarted) - count(packetPulled) - count(packetRemoved) - count(packetDropped)))"
attr title "queue length"
attr unit pk
vector 210 SmartHomeNetwork.securityCamera1.wlan[0].mac.dcf.channelAccess.pendingQueue queueBitLength:vector ETV
attr autoWarmupFilter false
attr interpolationmode sample-hold
attr recordingmode vector
attr source "warmup(atomic(constant0(packetPushEnded) + sum(packetLength(packetPushStarted)) - sum(packetLength(packetPulled)) - sum(packetLength(packetRemoved)) - sum(packetLength(packetDropped))))"
attr title "queue bit length"
attr unit b
vector 211 SmartHomeNetwork.securityCamera1.wlan[0].mac.dcf.channelAccess.pendingQueue queueingTime:vector ETV
attr interpolationmode none
attr recordingmode vector
attr source queueingTime(packetPulled)
attr title "queueing times"
attr unit s
vector 212 SmartHomeNetwork.securityCamera1.wlan[0].mac.dcf.channelAccess.pendingQueue incomingPacketLengths:vector ETV
attr interpolationmode none
attr recordingmode vector
attr source packetLength(packetPushStarted)
attr title "incoming packet lengths"
attr unit b
vector 213 SmartHomeNetwork.securityCamera1.wlan[0].mac.dcf.channelAccess.pendingQueue incomingDataRate:vector ETV
attr interpolationmode linear
attr recordingmode vector
attr source throughput(packetPushStarted)
attr title "incoming datarate"
attr unit bps
vector 214 SmartHomeNetwork.securityCamera1.wlan[0].mac.dcf.channelAccess.pendingQueue outgoingPacketLengths:vector ETV
attr interpolationmode none
attr recordingmode vector
attr source packetLength(packetPulled)
attr title "outgoing packet lengths"
attr unit b
vector 215 SmartHomeNetwork.securityCamera1.wlan[0].mac.dcf.channelAccess.pendingQueue outgoingDataRate:vector ETV
attr interpolationmode linear
attr recordingmode vector
attr source throughput(packetPulled)
attr title "outgoing datarate"
attr unit bps
vector 216 SmartHomeNetwork.securityCamera1.wlan[0].mac.dcf.channelAccess.pendingQueue droppedPacketLengthsQueueOverflow:vector ETV
attr interpolationmode none
attr recordingmode vector
attr source packetLength(packetDropReasonIsQueueOverflow(packetDropped))
attr title "dropped packet lengths: queue overflow"
attr unit b
vector 217 SmartHomeNetwork.securityCamera1.wlan[0].mac.dcf.channelAccess.pendingQueue flowQueueingTime:vector ETV
attr interpolationmode none
attr recordingmode vector
attr source queueingTime(demuxFlow(packetPulled))
attr title "flow queueing times"
attr unit s
vector 218 SmartHomeNetwork.securityCamera1.wlan[0].mac.dcf.channelAccess.pendingQueue flowIncomingDataRate:vector ETV
attr interpolationmode linear
attr recordingmode vector
attr source throughput(flowPacketLength(demuxFlow(packetPushStarted)))
attr title "flow specific incoming data rate"
attr unit bps
vector 219 SmartHomeNetwork.securityCamera1.wlan[0].mac.dcf.channelAccess.pendingQueue flowOutgoingDataRate:vector ETV
attr interpolationmode linear
attr recordingmode vector
attr source throughput(flowPacketLength(demuxFlow(packetPulled)))
attr title "flow specific outgoing data rate"
attr unit bps
vector 220 SmartHomeNetwork.securityCamera1.wlan[0].mac.dcf.channelAccess.inProgressFrames queueingTime:vector ETV
attr interpolationmode none
attr recordingmode vector
attr source queueingTime(packetDequeued)
attr title "queueing times"
vector 221 SmartHomeNetwork.securityCamera1.wlan[0].mac.dcf.channelAccess.inProgressFrames queueLength:vector ETV
attr autoWarmupFilter false
attr interpolationmode sample-hold
attr recordingmode vector
attr source "warmup(count(packetEnqueued) - count(packetDequeued))"
attr title "queue length"
vector 222 SmartHomeNetwork.securityCamera1.wlan[0].mac.dcf.channelAccess.contention backoffPeriodGenerated:vector ETV
attr interpolationmode none
attr recordingmode vector
attr title "backoff periods"
vector 223 SmartHomeNetwork.securityCamera1.wlan[0].mac.dcf.channelAccess.contention backoffActive:vector ETV
attr autoWarmupFilter false
attr interpolationmode sample-hold
attr recordingmode vector
attr source warmup(count(backoffStarted)-count(backoffStopped))
attr title "backoff active"
vector 224 SmartHomeNetwork.securityCamera1.wlan[0].mac.dcf.channelAccess.contention stateChanged:vector ETV
attr enum IDLE,DEFER,IFS_AND_BACKOFF
attr interpolationmode none
attr recordingmode vector
attr title "contention state changed"
attr type enum
vector 225 SmartHomeNetwork.securityCamera1.wlan[0].mac.dcf.recipientMacDataService packetDropDuplicateDetected:vector(packetBytes) ETV
attr interpolationmode none
attr recordingmode vector(packetBytes)
attr source packetDropReasonIsDuplicateDetected(packetDropped)
attr title "packet drops: duplicate detected, packetBytes"
vector 226 SmartHomeNetwork.securityCamera1.wlan[0].mac.dcf.recoveryProcedure contentionWindowChanged:vector ETV
attr interpolationmode sample-hold
attr recordingmode vector
attr title "contention window"
vector 227 SmartHomeNetwork.securityCamera1.wlan[0].mac.dcf packetSentToPeer:vector(packetBytes) ETV
attr interpolationmode none
attr recordingmode vector(packetBytes)
attr title "packets sent, packetBytes"
vector 228 SmartHomeNetwork.securityCamera1.wlan[0].mac.dcf packetSentToPeerUnicast:vector(packetBytes) ETV
attr interpolationmode none
attr recordingmode vector(packetBytes)
attr source ieee80211Unicast(packetSentToPeer)
attr title "packets sent: unicast, packetBytes"
vector 229 SmartHomeNetwork.securityCamera1.wlan[0].mac.dcf packetSentToPeerMulticast:vector(packetBytes) ETV
attr interpolationmode none
attr recordingmode vector(packetBytes)
attr source ieee80211Multicast(packetSentToPeer)
attr title "packets sent: multicast, packetBytes"
vector 230 SmartHomeNetwork.securityCamera1.wlan[0].mac.dcf packetSentToPeerBroadcast:vector(packetBytes) ETV
attr interpolationmode none
attr recordingmode vector(packetBytes)
attr source ieee80211Broadcast(packetSentToPeer)
attr title "packets sent: broadcast , packetBytes"
vector 231 SmartHomeNetwork.securityCamera1.wlan[0].mac.dcf packetSentToPeerWithRetry:vector(packetBytes) ETV
attr interpolationmode none
attr recordingmode vector(packetBytes)
attr source ieee80211Retry(packetSentToPeer)
attr title "packets sent: with retry, packetBytes"
vector 232 SmartHomeNetwork.securityCamera1.wlan[0].mac.dcf packetSentToPeerWithoutRetry:vector(packetBytes) ETV
attr interpolationmode none
attr recordingmode vector(packetBytes)
attr source ieee80211NotRetry(packetSentToPeer)
attr title "packets sent: without retry, packetBytes"
vector 233 SmartHomeNetwork.securityCamera1.wlan[0].mac.dcf packetReceivedFromPeer:vector(packetBytes) ETV
attr interpolationmode none
attr recordingmode vector(packetBytes)
attr title "packets received, packetBytes"
vector 234 SmartHomeNetwork.securityCamera1.wlan[0].mac.dcf packetReceivedFromPeerUnicast:vector(packetBytes) ETV
attr interpolationmode none
attr recordingmode vector(packetBytes)
attr source ieee80211Unicast(packetReceivedFromPeer)
attr title "packets received: unicast, packetBytes"
vector 235 SmartHomeNetwork.securityCamera1.wlan[0].mac.dcf packetReceivedFromPeerMulticast:vector(packetBytes) ETV
attr interpolationmode none
attr recordingmode vector(packetBytes)
attr source ieee80211Multicast(packetReceivedFromPeer)
attr title "packets received: multicast, packetBytes"
vector 236 SmartHomeNetwork.securityCamera1.wlan[0].mac.dcf packetReceivedFromPeerBroadcast:vector(packetBytes) ETV
attr interpolationmode none
attr recordingmode vector(packetBytes)
attr source ieee80211Broadcast(packetReceivedFromPeer)
attr title "packets received: broadcast, packetBytes"
vector 237 SmartHomeNetwork.securityCamera1.wlan[0].mac.dcf packetReceivedFromPeerWithRetry:vector(packetBytes) ETV
attr interpolationmode none
attr recordingmode vector(packetBytes)
attr source ieee80211Retry(packetReceivedFromPeer)
attr title "packets received: with retry, packetBytes"
vector 238 SmartHomeNetwork.securityCamera1.wlan[0].mac.dcf packetReceivedFromPeerWithoutRetry:vector(packetBytes) ETV
attr interpolationmode none
attr recordingmode vector(packetBytes)
attr source ieee80211NotRetry(packetReceivedFromPeer)
attr title "packets received: without retry, packetBytes"
vector 239 SmartHomeNetwork.securityCamera1.wlan[0].mac.dcf packetDrop:vector(packetBytes) ETV
attr interpolationmode none
attr recordingmode vector(packetBytes)
attr source packetDropped
attr title "packet drops, packetBytes"
vector 240 SmartHomeNetwork.securityCamera1.wlan[0].mac.dcf packetDropNotAddressedToUs:vector(packetBytes) ETV
attr interpolationmode none
attr recordingmode vector(packetBytes)
attr source packetDropReasonIsNotAddressedToUs(packetDropped)
attr title "packet drops: not addressed to us, packetBytes"
vector 241 SmartHomeNetwork.securityCamera1.wlan[0].mac.dcf packetDropQueueOverflow:vector(packetBytes) ETV
attr interpolationmode none
attr recordingmode vector(packetBytes)
attr source packetDropReasonIsQueueOverflow(packetDropped)
attr title "packet drops: queue overflow, packetBytes"
vector 242 SmartHomeNetwork.securityCamera1.wlan[0].mac.dcf packetDropRetryLimitReached:vector(packetBytes) ETV
attr interpolationmode none
attr recordingmode vector(packetBytes)
attr source packetDropReasonIsRetryLimitReached(packetDropped)
attr title "packet drops: retry limit reached, packetBytes"
vector 243 SmartHomeNetwork.securityCamera1.wlan[0].mac.dcf frameSequenceActive:vector ETV
attr autoWarmupFilter false
attr interpolationmode sample-hold
attr recordingmode vector
attr source warmup(count(frameSequenceStarted)-count(frameSequenceFinished))
attr title "frame sequence active"
vector 244 SmartHomeNetwork.securityCamera1.wlan[0].mac.dcf datarateSelected:vector ETV
attr interpolationmode none
attr recordingmode vector
attr title "datarates selected"
vector 245 SmartHomeNetwork.securityCamera1.wlan[0].mac.rx nav:vector ETV
attr interpolationmode linear
attr recordingmode vector
attr source navChanged
attr title "network allocation vector"
vector 246 SmartHomeNetwork.securityCamera1.wlan[0].mac packetSentToUpper:vector(packetBytes) ETV
attr interpolationmode none
attr recordingmode vector(packetBytes)
attr title "packets sent to upper layer, packetBytes"
vector 247 SmartHomeNetwork.securityCamera1.wlan[0].mac packetSentToLower:vector(packetBytes) ETV
attr interpolationmode none
attr recordingmode vector(packetBytes)
attr title "packets sent to lower layer, packetBytes"
vector 248 SmartHomeNetwork.securityCamera1.wlan[0].mac packetReceivedFromUpper:vector(packetBytes) ETV
attr interpolationmode none
attr recordingmode vector(packetBytes)
attr title "packets received from upper layer, packetBytes"
vector 249 SmartHomeNetwork.securityCamera1.wlan[0].mac packetReceivedFromLower:vector(packetBytes) ETV
attr interpolationmode none
attr recordingmode vector(packetBytes)
attr title "packets received from lower layer, packetBytes"
vector 250 SmartHomeNetwork.securityCamera1.wlan[0].mac packetDrop:vector(packetBytes) ETV
attr interpolationmode none
attr recordingmode vector(packetBytes)
attr source packetDropped
attr title "packet drops, packetBytes"
vector 251 SmartHomeNetwork.securityCamera1.wlan[0].mac packetDropIncorrectlyReceived:vector(packetBytes) ETV
attr interpolationmode none
attr recordingmode vector(packetBytes)
attr source packetDropReasonIsIncorrectlyReceived(packetDropped)
attr title "packet drops: incorrectly received, packetBytes"
vector 252 SmartHomeNetwork.securityCamera1.wlan[0].mac packetDropNotAddressedToUs:vector(packetBytes) ETV
attr interpolationmode none
attr recordingmode vector(packetBytes)
attr source packetDropReasonIsNotAddressedToUs(packetDropped)
attr title "packet drops: not addressed to us, packetBytes"
vector 253 SmartHomeNetwork.securityCamera1.wlan[0].mac packetDropQueueOverflow:vector(packetBytes) ETV
attr interpolationmode none
attr recordingmode vector(packetBytes)
attr source packetDropReasonIsQueueOverflow(packetDropped)
attr title "packet drops: queue overflow, packetBytes"
vector 254 SmartHomeNetwork.securityCamera1.wlan[0].mac packetDropRetryLimitReached:vector(packetBytes) ETV
attr interpolationmode none
attr recordingmode vector(packetBytes)
attr source packetDropReasonIsRetryLimitReached(packetDropped)
attr title "packet drops: retry limit reached, packetBytes"
vector 255 SmartHomeNetwork.securityCamera1.wlan[0].mac packetDropDuplicateDetected:vector(packetBytes) ETV
attr interpolationmode none
attr recordingmode vector(packetBytes)
attr source packetDropReasonIsDuplicateDetected(packetDropped)
attr title "packet drops: duplicate detected, packetBytes"
vector 256 SmartHomeNetwork.securityCamera1.wlan[0].mac packetDropOther:vector(packetBytes) ETV
attr interpolationmode none
attr recordingmode vector(packetBytes)
attr source packetDropReasonIsOther(packetDropped)
attr title "packet drops: other, packetBytes"
vector 257 SmartHomeNetwork.securityCamera1.wlan[0].radio radioMode:vector ETV
attr interpolationmode sample-hold
attr recordingmode vector
attr source radioModeChanged
attr title "Radio mode"
vector 258 SmartHomeNetwork.securityCamera1.wlan[0].radio receptionState:vector ETV
attr interpolationmode sample-hold
attr recordingmode vector
attr source receptionStateChanged
attr title "Radio reception state"
vector 259 SmartHomeNetwork.securityCamera1.wlan[0].radio transmissionState:vector ETV
attr interpolationmode sample-hold
attr recordingmode vector
attr source transmissionStateChanged
attr title "Radio transmission state"
vector 260 SmartHomeNetwork.securityCamera1.wlan[0].radio radioChannel:vector ETV
attr interpolationmode sample-hold
attr recordingmode vector
attr source radioChannelChanged
attr title "Radio channel"
vector 261 SmartHomeNetwork.securityCamera1.wlan[0] packetDropInterfaceDown:vector(packetBytes) ETV
attr interpolationmode none
attr recordingmode vector(packetBytes)
attr source packetDropReasonIsInterfaceDown(packetDropped)
attr title "packet drops: interface down, packetBytes"
vector 262 SmartHomeNetwork.securityCamera1.wlan[0] packetDropNoCarrier:vector(packetBytes) ETV
attr interpolationmode none
attr recordingmode vector(packetBytes)
attr source packetDropReasonIsNoCarrier(packetDropped)
attr title "packet drops: no carrier, packetBytes"
vector 263 SmartHomeNetwork.securityCamera1.ipv4.ip packetDropAddressResolutionFailed:vector(packetBytes) ETV
attr interpolationmode none
attr recordingmode vector(packetBytes)
attr source packetDropReasonIsAddressResolutionFailed(packetDropped)
attr title "packet drop: address resolution failed, packetBytes"
vector 264 SmartHomeNetwork.securityCamera1.ipv4.ip packetDropHopLimitReached:vector(packetBytes) ETV
attr interpolationmode none
attr recordingmode vector(packetBytes)
attr source packetDropReasonIsHopLimitReached(packetDropped)
attr title "packet drop: hop limit reached, packetBytes"
vector 265 SmartHomeNetwork.securityCamera1.ipv4.ip packetDropForwardingDisabled:vector(packetBytes) ETV
attr interpolationmode none
attr recordingmode vector(packetBytes)
attr source packetDropReasonIsForwardingDisabled(packetDropped)
attr title "packet drop: forwarding disabled, packetBytes"
vector 266 SmartHomeNetwork.securityCamera1.ipv4.ip packetDropNoInterfaceFound:vector(packetBytes) ETV
attr interpolationmode none
attr recordingmode vector(packetBytes)
attr source packetDropReasonIsNoInterfaceFound(packetDropped)
attr title "packet drop: no interface found, packetBytes"
vector 267 SmartHomeNetwork.securityCamera1.ipv4.ip packetDropNoRouteFound:vector(packetBytes) ETV
attr interpolationmode none
attr recordingmode vector(packetBytes)
attr source packetDropReasonIsNoRouteFound(packetDropped)
attr title "packet drop: no route found, packetBytes"
vector 268 SmartHomeNetwork.securityCamera1.ipv4.ip packetDropUndefined:vector(packetBytes) ETV
attr interpolationmode none
attr recordingmode vector(packetBytes)
attr source packetDropReasonIsUndefined(packetDropped)
attr title "packet drop: undefined, packetBytes"
vector 269 SmartHomeNetwork.securityCamera1.ipv4.arp arpRequestSent:vector(packetBytes) ETV
attr recordingmode vector(packetBytes)
attr source arpRequestSent
attr title "ARP request sent, packetBytes"
vector 270 SmartHomeNetwork.securityCamera1.ipv4.arp arpReplySent:vector(packetBytes) ETV
attr recordingmode vector(packetBytes)
attr source arpReplySent
attr title "ARP replies sent, packetBytes"
vector 271 SmartHomeNetwork.securityCamera1.udp packetSent:vector(packetBytes) ETV
attr interpolationmode none
attr recordingmode vector(packetBytes)
attr source packetSent
attr title "packets sent, packetBytes"
vector 272 SmartHomeNetwork.securityCamera1.udp packetReceived:vector(packetBytes) ETV
attr interpolationmode none
attr recordingmode vector(packetBytes)
attr source packetReceived
attr title "packets received, packetBytes"
vector 273 SmartHomeNetwork.securityCamera1.udp passedUpPk:vector(count) ETV
attr interpolationmode none
attr recordingmode vector(count)
attr source packetSentToUpper
attr title "packets passed up, count"
vector 274 SmartHomeNetwork.securityCamera1.udp droppedPkWrongPort:vector(count) ETV
attr interpolationmode none
attr recordingmode vector(count)
attr source packetDropReasonIsNoPortFound(packetDropped)
attr title "packets dropped (wrong port), count"
vector 275 SmartHomeNetwork.securityCamera1.udp droppedPkBadChecksum:vector(count) ETV
attr interpolationmode none
attr recordingmode vector(count)
attr source packetDropReasonIsIncorrectlyReceived(packetDropped)
attr title "packets dropped (checksum error), count"
vector 276 SmartHomeNetwork.securityCamera2.lo[0].lo rcvdPkFromHl:vector(packetBytes) ETV
attr interpolationmode none
attr recordingmode vector(packetBytes)
attr source packetReceivedFromUpper
attr title "packets received from higher layer, packetBytes"
vector 277 SmartHomeNetwork.securityCamera2.lo[0].lo passedUpPk:vector(packetBytes) ETV
attr interpolationmode none
attr recordingmode vector(packetBytes)
attr source packetSentToUpper
attr title "packets passed to higher layer, packetBytes"
vector 278 SmartHomeNetwork.securityCamera2.lo[0] packetDropInterfaceDown:vector(packetBytes) ETV
attr interpolationmode none
attr recordingmode vector(packetBytes)
attr source packetDropReasonIsInterfaceDown(packetDropped)
attr title "packet drops: interface down, packetBytes"
vector 279 SmartHomeNetwork.securityCamera2.lo[0] packetDropNoCarrier:vector(packetBytes) ETV
attr interpolationmode none
attr recordingmode vector(packetBytes)
attr source packetDropReasonIsNoCarrier(packetDropped)
attr title "packet drops: no carrier, packetBytes"
vector 280 SmartHomeNetwork.securityCamera2.wlan[0].agent sentRequest:vector ETV
attr recordingmode vector
attr title "sent requests"
vector 281 SmartHomeNetwork.securityCamera2.wlan[0].agent acceptConfirm:vector ETV
attr recordingmode vector
attr title "accepted confirms"
vector 282 SmartHomeNetwork.securityCamera2.wlan[0].agent dropConfirm:vector ETV
attr recordingmode vector
attr title "dropped confirms"
vector 283 SmartHomeNetwork.securityCamera2.wlan[0].mac.dcf.channelAccess.pendingQueue queueLength:vector ETV
attr autoWarmupFilter false
attr interpolationmode sample-hold
attr recordingmode vector
attr source "warmup(atomic(constant0(packetPushEnded) + count(packetPushStarted) - count(packetPulled) - count(packetRemoved) - count(packetDropped)))"
attr title "queue length"
attr unit pk
vector 284 SmartHomeNetwork.securityCamera2.wlan[0].mac.dcf.channelAccess.pendingQueue queueBitLength:vector ETV
attr autoWarmupFilter false
attr interpolationmode sample-hold
attr recordingmode vector
attr source "warmup(atomic(constant0(packetPushEnded) + sum(packetLength(packetPushStarted)) - sum(packetLength(packetPulled)) - sum(packetLength(packetRemoved)) - sum(packetLength(packetDropped))))"
attr title "queue bit length"
attr unit b
vector 285 SmartHomeNetwork.securityCamera2.wlan[0].mac.dcf.channelAccess.pendingQueue queueingTime:vector ETV
attr interpolationmode none
attr recordingmode vector
attr source queueingTime(packetPulled)
attr title "queueing times"
attr unit s
vector 286 SmartHomeNetwork.securityCamera2.wlan[0].mac.dcf.channelAccess.pendingQueue incomingPacketLengths:vector ETV
attr interpolationmode none
attr recordingmode vector
attr source packetLength(packetPushStarted)
attr title "incoming packet lengths"
attr unit b
vector 287 SmartHomeNetwork.securityCamera2.wlan[0].mac.dcf.channelAccess.pendingQueue incomingDataRate:vector ETV
attr interpolationmode linear
attr recordingmode vector
attr source throughput(packetPushStarted)
attr title "incoming datarate"
attr unit bps
vector 288 SmartHomeNetwork.securityCamera2.wlan[0].mac.dcf.channelAccess.pendingQueue outgoingPacketLengths:vector ETV
attr interpolationmode none
attr recordingmode vector
attr source packetLength(packetPulled)
attr title "outgoing packet lengths"
attr unit b
vector 289 SmartHomeNetwork.securityCamera2.wlan[0].mac.dcf.channelAccess.pendingQueue outgoingDataRate:vector ETV
attr interpolationmode linear
attr recordingmode vector
attr source throughput(packetPulled)
attr title "outgoing datarate"
attr unit bps
vector 290 SmartHomeNetwork.securityCamera2.wlan[0].mac.dcf.channelAccess.pendingQueue droppedPacketLengthsQueueOverflow:vector ETV
attr interpolationmode none
attr recordingmode vector
attr source packetLength(packetDropReasonIsQueueOverflow(packetDropped))
attr title "dropped packet lengths: queue overflow"
attr unit b
vector 291 SmartHomeNetwork.securityCamera2.wlan[0].mac.dcf.channelAccess.pendingQueue flowQueueingTime:vector ETV
attr interpolationmode none
attr recordingmode vector
attr source queueingTime(demuxFlow(packetPulled))
attr title "flow queueing times"
attr unit s
vector 292 SmartHomeNetwork.securityCamera2.wlan[0].mac.dcf.channelAccess.pendingQueue flowIncomingDataRate:vector ETV
attr interpolationmode linear
attr recordingmode vector
[...]
attr source packetSentToUpper
attr title "packets passed up, count"
vector 496 SmartHomeNetwork.homeAssistant.udp droppedPkWrongPort:vector(count) ETV
attr interpolationmode none
attr recordingmode vector(count)
attr source packetDropReasonIsNoPortFound(packetDropped)
attr title "packets dropped (wrong port), count"
vector 497 SmartHomeNetwork.homeAssistant.udp droppedPkBadChecksum:vector(count) ETV
attr interpolationmode none
attr recordingmode vector(count)
attr source packetDropReasonIsIncorrectlyReceived(packetDropped)
attr title "packets dropped (checksum error), count"
vector 498 SmartHomeNetwork throughput:vector ETV
attr recordingmode vector
attr source throughput(packetSentToUpper)
vector 499 SmartHomeNetwork endToEndDelay:vector ETV
attr recordingmode vector
attr source endToEndDelay(packetReceived)
0	133556 32955 0 22453 0 59.979172503343 1253 0 1 624 624
1	166511 34203 0 22453 0 59.979172503343 1253 0 384 237696 90743808
2	200714 16615 8 22453 0.079172503343 59.979172503343 624 0 0.000694 0.008852 4.138208e-06
3	217329 17703 6 22451 0.079172503343 59.979172503343 624 272 384 237696 90743808
4	235032 10961 66 22483 0.1 60 600 3840 20480 2376960 10415308800
5	245993 17703 8 22453 0.079172503343 59.979172503343 624 272 384 237696 90743808
6	263696 10961 80 22483 0.1 60 600 3840 20480 2376960 10415308800
11	274657 20965 17 22462 0.079218503343 59.979218503343 624 4.6e-05 9.1377584e-05 0.029711746432 1.4554847071208e-06
12	295622 34180 0 22462 0 59.979218503343 1250 0 1 624 624
13	329802 17493 6 22451 0.079172503343 59.979172503343 624 0 31 9464 197602
14	347295 35098 0 22452 0 59.979172503343 1286 0 1 642 642
15	382393 140924 0 22463 0 59.979218503343 5162 0 2 2604 5172
17	523317 11 0 0 0 0 1 31 31 31 961
18	523328 18182 17 22462 0.079218503343 59.979218503343 642 14 48 29964 1421400
19	541510 1109 89 2857 0.117428509604 0.690944273177 42 14 48 1164 39000
20	542619 17073 17 22462 0.079218503343 59.979218503343 600 48 48 28800 1382400
21	559692 17073 17 22462 0.079218503343 59.979218503343 600 48 48 28800 1382400
23	576765 18182 17 22462 0.079218503343 59.979218503343 642 14 48 29964 1421400
24	594947 1263 64 2897 0.117052509604 0.690989650761 48 14 36 1152 32496
25	596210 1110 124 2897 0.117473743376 0.690989650761 42 14 36 960 26352
26	597320 153 64 633 0.117052509604 0.389137518009 6 32 32 192 6144
27	597473 153 64 633 0.117052509604 0.389137518009 6 32 32 192 6144
29	597626 1263 64 2897 0.117052509604 0.690989650761 48 14 36 1152 32496
34	598889 34180 0 22462 0 59.979218503343 1250 0 1 624 624
35	633069 22033 8 22453 0.079172503343 59.979172503343 642 24000000 24000000 15408000000 3.69792e+17
36	655102 1967 89 2882 0.117428509604 0.690988273177 72 0 4.4e-05 0.001056 4.6464e-08
38	657069 18181 8 22453 0.079172503343 59.979172503343 642 14 48 29964 1421400
40	675250 1263 64 2897 0.117052509604 0.690989650761 48 14 36 1152 32496
48	676513 35109 0 22463 0 59.979218503343 1287 0 3 3212 8350
49	711622 37519 0 22463 0 59.979218503343 1381 0 3 835 1123
50	749141 70159 9 22463 0.079172503343 59.979218503343 2568 0 2 2568 3852
51	819300 10 0 0 0 0 1 0 0 0 0
58	819310 77 444 2369 0.267531900527 0.669043748991 3 1 4 7 21
59	819387 78 2178 2483 0.667531900527 0.669316673223 3 1 4 7 21
61	819465 256 0 2408 0 0.669137748991 13 0 1 4 4
62	819721 264 0 2408 0 0.669137748991 13 0 288 1088 296448
63	819985 116 490 2408 0.367531900527 0.669137748991 4 0 0.000654 0.000748 4.36552e-07
64	820101 111 488 2372 0.367531900527 0.669043748991 4 256 288 1088 296448
65	820212 9978 488 22483 0.1 60 600 0 8320 10880 75776000
66	830190 111 490 2408 0.367531900527 0.669137748991 4 256 288 1088 296448
67	830301 9978 490 22483 0.1 60 600 0 8320 10880 75776000
72	840279 145 499 2455 0.367569900527 0.669224673223 4 3.8e-05 8.6924232e-05 0.000298772696 2.4111466326369e-08
73	840424 226 0 2455 0 0.669224673223 10 0 1 4 4
74	840650 106 488 2372 0.367531900527 0.669043748991 4 0 28 65 1469
75	840756 330 0 2407 0 0.669137748991 14 0 1 6 6
76	841086 75216 0 22473 0 59.979218965459 2766 0 2 28 52
78	916302 11 0 0 0 0 1 31 31 31 961
79	916313 214 499 2501 0.367569900527 0.669360673223 8 14 36 192 5416
80	916527 188 558 2501 0.368030824759 0.669360673223 7 14 36 160 4392
81	916715 26 499 499 0.367569900527 0.367569900527 1 32 32 32 1024
82	916741 26 499 499 0.367569900527 0.367569900527 1 32 32 32 1024
84	916767 214 499 2501 0.367569900527 0.669360673223 8 14 36 192 5416
85	916981 17391 29 22474 0.079218965459 59.979218965459 612 14 48 29154 1394020
86	934372 188 539 2481 0.367986824759 0.669316673223 7 14 48 194 6500
87	934560 17203 29 22474 0.079218965459 59.979218965459 605 32 48 28960 1387520
88	951763 17203 29 22474 0.079218965459 59.979218965459 605 32 48 28960 1387520
90	968966 17391 29 22474 0.079218965459 59.979218965459 612 14 48 29154 1394020
91	986357 1861 98 2899 0.11742897172 0.690989992466 70 14 48 1770 54460
92	988218 1861 98 2899 0.11742897172 0.690989992466 70 14 48 1770 54460
95	990079 226 0 2455 0 0.669224673223 10 0 1 4 4
96	990305 262 490 2481 0.367531900527 0.669316673223 8 24000000 24000000 192000000 4.608e+15
97	990567 3148 98 2886 0.11742897172 0.690988735293 114 0 4.4e-05 0.001672 7.3568e-08
99	993715 214 490 2488 0.367531900527 0.669326673223 8 14 36 192 5416
101	993929 19934 29 22474 0.079218965459 59.979218965459 682 14 48 30924 1448480
102	1013863 1931 98 2899 0.11742897172 0.690989992466 70 14 48 1770 54460
104	1015794 1931 98 2899 0.11742897172 0.690989992466 70 14 48 1770 54460
109	1017725 461 0 2502 0 0.669360673223 19 0 3 42 108
110	1018186 38940 0 22473 0 59.979218965459 1381 0 3 2737 6829
111	1057126 856 491 2502 0.367531900527 0.669360673223 32 0 2 32 48
112	1057982 91 0 2373 0 0.669043748991 4 0 0 0 0
125	1058073 11 0 0 0 0 1 0 0 0 0
126	1058084 11 0 0 0 0 1 0 0 0 0
127	1058095 11 0 0 0 0 1 0 0 0 0
132	1058106 76 1 895 0.017013892718 0.418126360262 3 1 4 7 21
133	1058182 79 702 1009 0.417013892718 0.418939594034 3 1 4 7 21
135	1058261 259 0 932 0 0.418280360262 13 0 1 4 4
136	1058520 267 0 932 0 0.418280360262 13 0 288 1088 296448
137	1058787 115 49 932 0.117013892718 0.418280360262 4 0 0.000154 0.000248 3.2552e-08
138	1058902 110 47 898 0.117013892718 0.418126360262 4 256 288 1088 296448
139	1059012 10578 47 22483 0.1 60 600 0 8320 10880 75776000
140	1069590 110 49 932 0.117013892718 0.418280360262 4 256 288 1088 296448
141	1069700 10578 49 22483 0.1 60 600 0 8320 10880 75776000
146	1080278 144 58 983 0.117051892718 0.418367594034 4 3.8e-05 8.7233772e-05 0.000299701316 2.4273192932044e-08
147	1080422 226 0 983 0 0.418367594034 10 0 1 4 4
148	1080648 104 47 898 0.117013892718 0.418126360262 4 0 23 41 763
149	1080752 328 0 931 0 0.418280360262 14 0 1 6 6
150	1081080 77990 0 22476 0 59.979219120229 2766 0 2 28 52
152	1159070 12 0 0 0 0 1 31 31 31 961
153	1159082 213 58 1026 0.117051892718 0.418983594034 8 14 36 192 5416
154	1159295 187 118 1026 0.11747312649 0.418983594034 7 14 36 160 4392
155	1159482 26 58 58 0.117051892718 0.117051892718 1 32 32 32 1024
156	1159508 26 58 58 0.117051892718 0.117051892718 1 32 32 32 1024
158	1159534 213 58 1026 0.117051892718 0.418983594034 8 14 36 192 5416
159	1159747 17996 32 22477 0.079219120229 59.979219120229 612 14 48 29154 1394020
160	1177743 187 100 1007 0.11742912649 0.418939594034 7 14 48 194 6500
161	1177930 17809 32 22477 0.079219120229 59.979219120229 605 32 48 28960 1387520
162	1195739 17809 32 22477 0.079219120229 59.979219120229 605 32 48 28960 1387520
164	1213548 17996 32 22477 0.079219120229 59.979219120229 612 14 48 29154 1394020
165	1231544 1950 227 2895 0.182031906656 0.690989627645 70 14 48 1770 54460
166	1233494 1950 227 2895 0.182031906656 0.690989627645 70 14 48 1770 54460
169	1235444 226 0 983 0 0.418367594034 10 0 1 4 4
170	1235670 261 49 1007 0.117013892718 0.418939594034 8 24000000 24000000 192000000 4.608e+15
171	1235931 3279 227 2887 0.182031906656 0.690988890063 114 0 4.4e-05 0.001672 7.3568e-08
173	1239210 213 49 1012 0.117013892718 0.418949594034 8 14 36 192 5416
175	1239423 19946 32 22477 0.079219120229 59.979219120229 682 14 48 30924 1448480
176	1259369 1950 227 2895 0.182031906656 0.690989627645 70 14 48 1770 54460
178	1261319 1950 227 2895 0.182031906656 0.690989627645 70 14 48 1770 54460
183	1263269 443 0 1027 0 0.418983594034 19 0 3 42 108
184	1263712 38945 0 22476 0 59.979219120229 1381 0 3 2737 6829
185	1302657 820 50 1027 0.117013892718 0.418983594034 32 0 2 32 48
186	1303477 87 0 899 0 0.418126360262 4 0 0 0 0
199	1303564 11 0 0 0 0 1 0 0 0 0
200	1303575 11 0 0 0 0 1 0 0 0 0
201	1303586 11 0 0 0 0 1 0 0 0 0
206	1303597 80 480 2758 0.289098829217 0.689931584385 3 1 4 7 21
207	1303677 81 2562 2872 0.689098829217 0.690944961969 3 1 4 7 21
209	1303758 269 0 2793 0 0.690425584385 13 0 1 4 4
210	1304027 277 0 2793 0 0.690425584385 13 0 288 1088 296448
211	1304304 121 612 2793 0.389098829217 0.690425584385 4 0 0.000494 0.000708 2.89832e-07
212	1304425 115 610 2761 0.389098829217 0.689931584385 4 256 288 1088 296448
213	1304540 10578 610 22483 0.1 60 600 0 8320 10880 75776000
214	1315118 115 612 2793 0.389098829217 0.690425584385 4 256 288 1088 296448
215	1315233 10578 612 22483 0.1 60 600 0 8320 10880 75776000
220	1325811 149 621 2846 0.389136829217 0.690512961969 4 3.8e-05 8.7377584e-05 0.000300132752 2.4348526557031e-08
221	1325960 236 0 2846 0 0.690512961969 10 0 1 4 4
222	1326196 109 610 2761 0.389098829217 0.689931584385 4 5 21 52 902
223	1326305 344 0 2792 0 0.690425584385 14 0 1 6 6
224	1326649 77986 0 22479 0 59.979219192135 2766 0 2 28 52
226	1404635 12 0 0 0 0 1 31 31 31 961
227	1404647 222 621 2888 0.389136829217 0.690988961969 8 14 36 192 5416
228	1404869 195 683 2888 0.389878206801 0.690988961969 7 14 36 160 4392
229	1405064 27 621 621 0.389136829217 0.389136829217 1 32 32 32 1024
230	1405091 27 621 621 0.389136829217 0.389136829217 1 32 32 32 1024
232	1405118 222 621 2888 0.389136829217 0.690988961969 8 14 36 192 5416
233	1405340 18003 35 22480 0.079219192135 59.979219192135 612 14 48 29154 1394020
234	1423343 195 666 2870 0.389834206801 0.690944961969 7 14 48 194 6500
235	1423538 17808 35 22480 0.079219192135 59.979219192135 605 32 48 28960 1387520
236	1441346 17808 35 22480 0.079219192135 59.979219192135 605 32 48 28960 1387520
238	1459154 18003 35 22480 0.079219192135 59.979219192135 612 14 48 29154 1394020
239	1477157 1931 103 2514 0.117429198396 0.66936170372 70 14 48 1770 54460
240	1479088 1931 103 2514 0.117429198396 0.66936170372 70 14 48 1770 54460
243	1481019 236 0 2846 0 0.690512961969 10 0 1 4 4
244	1481255 270 612 2870 0.389098829217 0.690944961969 8 24000000 24000000 192000000 4.608e+15
245	1481525 3264 103 2827 0.117429198396 0.690511584385 114 0 4.4e-05 0.001672 7.3568e-08
247	1484789 222 612 2873 0.389098829217 0.690954961969 8 14 36 192 5416
249	1485011 19934 35 22480 0.079219192135 59.979219192135 682 14 48 30924 1448480
250	1504945 1931 103 2514 0.117429198396 0.66936170372 70 14 48 1770 54460
252	1506876 1931 103 2514 0.117429198396 0.66936170372 70 14 48 1770 54460
257	1508807 461 0 2889 0 0.690988961969 19 0 3 42 108
258	1509268 38940 0 22479 0 59.979219192135 1381 0 3 2737 6829
259	1548208 856 613 2889 0.389098829217 0.690988961969 32 0 2 32 48
260	1549064 91 0 2762 0 0.689931584385 4 0 0 0 0
273	1549155 11 0 0 0 0 1 0 0 0 0
274	1549166 11 0 0 0 0 1 0 0 0 0
275	1549177 11 0 0 0 0 1 0 0 0 0
280	1549188 79 37 1273 0.081796888355 0.483588494015 3 1 4 7 21
281	1549267 81 1086 1387 0.481796888355 0.484281296845 3 1 4 7 21
283	1549348 269 0 1316 0 0.483962494015 13 0 1 4 4
284	1549617 277 0 1316 0 0.483962494015 13 0 288 1088 296448
285	1549894 121 175 1316 0.181796888355 0.483962494015 4 0 0.000474 0.000848 3.64552e-07
286	1550015 115 173 1276 0.181796888355 0.483588494015 4 256 288 1088 296448
287	1550130 10582 173 22483 0.1 60 600 0 8320 10880 75776000
288	1560712 115 175 1316 0.181796888355 0.483962494015 4 256 288 1088 296448
289	1560827 10582 175 22483 0.1 60 600 0 8320 10880 75776000
294	1571409 146 184 1359 0.181834888355 0.484049296845 4 3.8e-05 8.680283e-05 0.00029840849 2.4048193888027e-08
295	1571555 236 0 1359 0 0.484049296845 10 0 1 4 4
296	1571791 111 173 1276 0.181796888355 0.483588494015 4 14 19 69 1207
297	1571902 344 0 1315 0 0.483962494015 14 0 1 6 6
298	1572246 77986 0 22467 0 59.979218904758 2766 0 2 28 52
300	1650232 12 0 0 0 0 1 31 31 31 961
301	1650244 222 184 1407 0.181834888355 0.484325296845 8 14 36 192 5416
302	1650466 195 241 1407 0.182075691185 0.484325296845 7 14 36 160 4392
303	1650661 27 184 184 0.181834888355 0.181834888355 1 32 32 32 1024
304	1650688 27 184 184 0.181834888355 0.181834888355 1 32 32 32 1024
306	1650715 222 184 1407 0.181834888355 0.484325296845 8 14 36 192 5416
307	1650937 18001 23 22468 0.079218904758 59.979218904758 612 14 48 29154 1394020
308	1668938 195 220 1385 0.182031691185 0.484281296845 7 14 48 194 6500
309	1669133 17806 23 22468 0.079218904758 59.979218904758 605 32 48 28960 1387520
310	1686939 17806 23 22468 0.079218904758 59.979218904758 605 32 48 28960 1387520
312	1704745 18001 23 22468 0.079218904758 59.979218904758 612 14 48 29154 1394020
313	1722746 1933 94 2901 0.117428911019 0.690990047698 70 14 48 1770 54460
314	1724679 1933 94 2901 0.117428911019 0.690990047698 70 14 48 1770 54460
317	1726612 236 0 1359 0 0.484049296845 10 0 1 4 4
318	1726848 270 175 1385 0.181796888355 0.484281296845 8 24000000 24000000 192000000 4.608e+15
319	1727118 3265 94 2884 0.117428911019 0.690988674592 114 0 4.4e-05 0.001672 7.3568e-08
321	1730383 222 175 1396 0.181796888355 0.484291296845 8 14 36 192 5416
323	1730605 19934 23 22468 0.079218904758 59.979218904758 682 14 48 30924 1448480
324	1750539 1933 94 2901 0.117428911019 0.690990047698 70 14 48 1770 54460
326	1752472 1933 94 2901 0.117428911019 0.690990047698 70 14 48 1770 54460
331	1754405 461 0 1408 0 0.484325296845 19 0 3 42 108
332	1754866 38942 0 22467 0 59.979218904758 1381 0 3 2737 6829
333	1793808 856 176 1408 0.181796888355 0.484325296845 32 0 2 32 48
334	1794664 90 0 1277 0 0.483588494015 4 0 0 0 0
347	1794754 11 0 0 0 0 1 0 0 0 0
348	1794765 11 0 0 0 0 1 0 0 0 0
349	1794776 11 0 0 0 0 1 0 0 0 0
354	1794787 79 42 1628 0.115032456396 0.516184204324 3 1 4 7 21
355	1794866 81 1439 1742 0.515032456396 0.517077078288 3 1 4 7 21
357	1794947 267 0 1669 0 0.516898204324 13 0 1 4 4
358	1795214 275 0 1669 0 0.516898204324 13 0 288 1088 296448
359	1795489 120 266 1669 0.215032456396 0.516898204324 4 0 0.000714 0.000988 5.84872e-07
360	1795609 114 264 1631 0.215032456396 0.516184204324 4 256 288 1088 296448
361	1795723 10580 264 22483 0.1 60 600 0 8320 10880 75776000
362	1806303 114 266 1669 0.215032456396 0.516898204324 4 256 288 1088 296448
363	1806417 10580 266 22483 0.1 60 600 0 8320 10880 75776000
368	1816997 148 275 1715 0.215070456396 0.516985078288 4 3.8e-05 8.6873964e-05 0.000298621892 2.408525686322e-08
369	1817145 234 0 1715 0 0.516985078288 10 0 1 4 4
370	1817379 108 264 1631 0.215032456396 0.516184204324 4 0 31 65 1667
371	1817487 340 0 1668 0 0.516898204324 14 0 1 6 6
372	1817827 77962 0 22470 0 59.979218940325 2766 0 2 28 52
374	1895789 12 0 0 0 0 1 31 31 31 961
375	1895801 219 275 1761 0.215070456396 0.517121078288 8 14 36 192 5416
376	1896020 192 333 1761 0.21547133036 0.517121078288 7 14 36 160 4392
377	1896212 27 275 275 0.215070456396 0.215070456396 1 32 32 32 1024
378	1896239 27 275 275 0.215070456396 0.215070456396 1 32 32 32 1024
380	1896266 219 275 1761 0.215070456396 0.517121078288 8 14 36 192 5416
381	1896485 17999 26 22471 0.079218940325 59.979218940325 612 14 48 29154 1394020
382	1914484 192 313 1740 0.21542733036 0.517077078288 7 14 48 194 6500
383	1914676 17807 26 22471 0.079218940325 59.979218940325 605 32 48 28960 1387520
384	1932483 17807 26 22471 0.079218940325 59.979218940325 605 32 48 28960 1387520
386	1950290 17999 26 22471 0.079218940325 59.979218940325 612 14 48 29154 1394020
387	1968289 1931 96 2891 0.117428946586 0.69098935532 70 14 48 1770 54460
388	1970220 1931 96 2891 0.117428946586 0.69098935532 70 14 48 1770 54460
391	1972151 234 0 1715 0 0.516985078288 10 0 1 4 4
392	1972385 267 266 1740 0.215032456396 0.517077078288 8 24000000 24000000 192000000 4.608e+15
393	1972652 3262 96 2885 0.117428946586 0.690988710159 114 0 4.4e-05 0.001672 7.3568e-08
395	1975914 219 266 1749 0.215032456396 0.517087078288 8 14 36 192 5416
397	1976133 19930 26 22471 0.079218940325 59.979218940325 682 14 48 30924 1448480
398	1996063 1931 96 2891 0.117428946586 0.69098935532 70 14 48 1770 54460
400	1997994 1931 96 2891 0.117428946586 0.69098935532 70 14 48 1770 54460
405	1999925 455 0 1762 0 0.517121078288 19 0 3 42 108
406	2000380 38928 0 22470 0 59.979218940325 1381 0 3 2737 6829
407	2039308 844 267 1762 0.215032456396 0.517121078288 32 0 2 32 48
408	2040152 90 0 1632 0 0.516184204324 4 0 0 0 0
421	2040242 11 0 0 0 0 1 0 0 0 0
422	2040253 11 0 0 0 0 1 0 0 0 0
423	2040264 11 0 0 0 0 1 0 0 0 0
428	2040275 80 136 1978 0.143299533497 0.544810981949 3 1 4 7 21
429	2040355 81 1793 2092 0.543299533497 0.545743706175 3 1 4 7 21
431	2040436 269 0 2023 0 0.544964981949 13 0 1 4 4
432	2040705 277 0 2023 0 0.544964981949 13 0 288 1088 296448
433	2040982 121 356 2023 0.243299533497 0.544964981949 4 0 0.000494 0.000648 2.67752e-07
434	2041103 115 354 1981 0.243299533497 0.544810981949 4 256 288 1088 296448
435	2041218 10580 354 22483 0.1 60 600 0 8320 10880 75776000
436	2051798 115 356 2023 0.243299533497 0.544964981949 4 256 288 1088 296448
437	2051913 10580 356 22483 0.1 60 600 0 8320 10880 75776000
442	2062493 149 365 2065 0.243337533497 0.545051706175 4 3.8e-05 8.6724226e-05 0.000298172678 2.4007274125897e-08
443	2062642 236 0 2065 0 0.545051706175 10 0 1 4 4
444	2062878 109 354 1981 0.243299533497 0.544810981949 4 3 31 62 1434
445	2062987 344 0 2022 0 0.544964981949 14 0 1 6 6
446	2063331 77982 0 22464 0 59.979218865456 2766 0 2 28 52
448	2141313 12 0 0 0 0 1 31 31 31 961
449	2141325 222 365 2113 0.243337533497 0.545787706175 8 14 36 192 5416
450	2141547 195 421 2113 0.243658257723 0.545787706175 7 14 36 160 4392
451	2141742 27 365 365 0.243337533497 0.243337533497 1 32 32 32 1024
452	2141769 27 365 365 0.243337533497 0.243337533497 1 32 32 32 1024
454	2141796 222 365 2113 0.243337533497 0.545787706175 8 14 36 192 5416
455	2142018 18002 20 22465 0.079218865456 59.979218865456 612 14 48 29154 1394020
456	2160020 195 399 2090 0.243614257723 0.545743706175 7 14 48 194 6500
457	2160215 17807 20 22465 0.079218865456 59.979218865456 605 32 48 28960 1387520
458	2178022 17807 20 22465 0.079218865456 59.979218865456 605 32 48 28960 1387520
460	2195829 18002 20 22465 0.079218865456 59.979218865456 612 14 48 29154 1394020
461	2213831 1930 92 2893 0.117428871717 0.69098951235 70 14 48 1770 54460
462	2215761 1930 92 2893 0.117428871717 0.69098951235 70 14 48 1770 54460
465	2217691 236 0 2065 0 0.545051706175 10 0 1 4 4
466	2217927 270 356 2090 0.243299533497 0.545743706175 8 24000000 24000000 192000000 4.608e+15
467	2218197 3263 92 2883 0.117428871717 0.69098863529 114 0 4.4e-05 0.001672 7.3568e-08
469	2221460 222 356 2103 0.243299533497 0.545753706175 8 14 36 192 5416
471	2221682 19932 20 22465 0.079218865456 59.979218865456 682 14 48 30924 1448480
472	2241614 1930 92 2893 0.117428871717 0.69098951235 70 14 48 1770 54460
474	2243544 1930 92 2893 0.117428871717 0.69098951235 70 14 48 1770 54460
479	2245474 461 0 2114 0 0.545787706175 19 0 3 42 108
480	2245935 38939 0 22464 0 59.979218865456 1381 0 3 2737 6829
481	2284874 856 357 2114 0.243299533497 0.545787706175 32 0 2 32 48
482	2285730 91 0 1982 0 0.544810981949 4 0 0 0 0
495	2285821 11 0 0 0 0 1 0 0 0 0
496	2285832 11 0 0 0 0 1 0 0 0 0
497	2285843 11 0 0 0 0 1 0 0 0 0
498	2285854 19520 60 22483 0.1 60 602 0 940277.26024318 16020123.966179 1659235984035.2

